<?xml version="1.0" encoding="UTF-8"?>

<!-- generated on 2025-08-05 19:06:33 by Eclipse SUMO netconvert Version 1.24.0
<netconvertConfiguration xmlns:xsi="http://www.w3.org/2001/XMLSchema-instance" xsi:noNamespaceSchemaLocation="http://sumo.dlr.de/xsd/netconvertConfiguration.xsd">

    <input>
        <osm-files value="map.osm"/>
    </input>

    <output>
        <output-file value="map.net.xml"/>
    </output>

    <projection>
        <proj.utm value="true"/>
    </projection>

    <processing>
        <geometry.remove value="true"/>
    </processing>

    <tls_building>
        <tls.discard-simple value="true"/>
    </tls_building>

    <edge_removal>
        <remove-edges.by-type value="cycleway,footway,path,pedestrian,steps,track,rail,service"/>
        <remove-edges.isolated value="true"/>
    </edge_removal>

    <junctions>
        <no-turnarounds value="true"/>
        <junctions.join value="true"/>
    </junctions>

    <pedestrian>
        <sidewalks.guess value="false"/>
        <crossings.guess value="false"/>
        <walkingareas value="false"/>
    </pedestrian>

    <bicycle>
        <bikelanes.guess value="false"/>
    </bicycle>

    <railway>
        <railway.signals.discard value="true"/>
        <railway.topology.repair value="false"/>
    </railway>

</netconvertConfiguration>
-->

<net version="1.20" junctionCornerDetail="5" limitTurnSpeed="5.50" xmlns:xsi="http://www.w3.org/2001/XMLSchema-instance" xsi:noNamespaceSchemaLocation="http://sumo.dlr.de/xsd/net_file.xsd">

    <location netOffset="-454984.28,-5428306.14" convBoundary="0.00,0.00,1485.39,1895.74" origBoundary="8.355408,49.003492,8.444808,49.023125" projParameter="+proj=utm +zone=32 +ellps=WGS84 +datum=WGS84 +units=m +no_defs"/>

    <type id="highway.cycleway" priority="1" numLanes="1" speed="5.56" allow="bicycle" oneway="0" width="2.00"/>
    <type id="highway.footway" priority="1" numLanes="1" speed="2.78" allow="pedestrian" oneway="1" width="2.00"/>
    <type id="highway.living_street" priority="2" numLanes="1" speed="2.78" disallow="tram rail_urban rail rail_electric rail_fast ship container cable_car subway aircraft wheelchair scooter drone" oneway="0"/>
    <type id="highway.path" priority="1" numLanes="1" speed="5.56" allow="pedestrian bicycle" oneway="0" width="2.00"/>
    <type id="highway.pedestrian" priority="1" numLanes="1" speed="2.78" allow="pedestrian" oneway="1" width="2.00"/>
    <type id="highway.primary" priority="12" numLanes="2" speed="27.78" disallow="tram rail_urban rail rail_electric rail_fast ship container cable_car subway aircraft wheelchair scooter drone" oneway="0"/>
    <type id="highway.primary_link" priority="7" numLanes="1" speed="22.22" disallow="tram rail_urban rail rail_electric rail_fast ship container cable_car subway aircraft wheelchair scooter drone" oneway="0"/>
    <type id="highway.residential" priority="3" numLanes="1" speed="13.89" disallow="tram rail_urban rail rail_electric rail_fast ship container cable_car subway aircraft wheelchair scooter drone" oneway="0"/>
    <type id="highway.secondary" priority="11" numLanes="1" speed="27.78" disallow="tram rail_urban rail rail_electric rail_fast ship container cable_car subway aircraft wheelchair scooter drone" oneway="0"/>
    <type id="highway.service" priority="1" numLanes="1" speed="5.56" allow="pedestrian delivery bicycle" oneway="0"/>
    <type id="highway.steps" priority="1" numLanes="1" speed="1.39" allow="pedestrian" oneway="1" width="2.00"/>
    <type id="highway.tertiary" priority="10" numLanes="1" speed="22.22" disallow="tram rail_urban rail rail_electric rail_fast ship container cable_car subway aircraft wheelchair scooter drone" oneway="0"/>
    <type id="railway.tram" priority="17" numLanes="1" speed="13.89" allow="tram" oneway="1"/>

    <edge id=":1005874602_0" function="internal">
        <lane id=":1005874602_0_0" index="0" disallow="tram rail_urban rail rail_electric rail_fast ship container cable_car subway aircraft wheelchair scooter drone" speed="1.39" length="0.91" width="6.00" shape="377.91,258.85 377.99,259.76"/>
    </edge>
    <edge id=":1005874623_0" function="internal">
        <lane id=":1005874623_0_0" index="0" allow="pedestrian delivery bicycle" speed="3.47" length="6.43" width="6.00" shape="382.92,264.25 380.87,264.38 379.45,264.97 378.66,266.02 378.49,267.53"/>
    </edge>
    <edge id=":1005874623_1" function="internal">
        <lane id=":1005874623_1_0" index="0" allow="pedestrian delivery bicycle" speed="3.47" length="5.32" shape="378.00,259.96 378.66,260.54 380.16,260.86 381.85,261.01 383.06,261.06"/>
    </edge>
    <edge id=":1005874623_2" function="internal">
        <lane id=":1005874623_2_0" index="0" disallow="tram rail_urban rail rail_electric rail_fast ship container cable_car subway aircraft wheelchair scooter drone" speed="1.39" length="7.59" width="6.00" shape="378.00,259.96 378.49,267.53"/>
    </edge>
    <edge id=":1005874656_0" function="internal">
        <lane id=":1005874656_0_0" index="0" allow="pedestrian delivery bicycle" speed="4.99" length="5.06" shape="429.55,267.04 428.16,267.15 427.16,267.69 426.55,268.64 426.34,270.02"/>
    </edge>
    <edge id=":1005874656_1" function="internal">
        <lane id=":1005874656_1_0" index="0" allow="pedestrian delivery bicycle" speed="5.56" length="9.41" shape="429.55,267.04 420.16,266.46"/>
    </edge>
    <edge id=":1005874656_2" function="internal">
        <lane id=":1005874656_2_0" index="0" allow="pedestrian delivery bicycle" speed="5.56" length="9.42" shape="420.35,263.27 429.76,263.85"/>
    </edge>
    <edge id=":1005874656_3" function="internal">
        <lane id=":1005874656_3_0" index="0" allow="pedestrian delivery bicycle" speed="5.56" length="10.19" shape="420.35,263.27 423.00,263.83 424.88,265.14 425.99,267.20 426.34,270.02"/>
    </edge>
    <edge id=":1005874656_4" function="internal">
        <lane id=":1005874656_4_0" index="0" allow="pedestrian delivery bicycle" speed="5.20" length="5.20" shape="423.14,269.98 422.97,268.51 422.41,267.43 421.48,266.75 420.16,266.46"/>
    </edge>
    <edge id=":1005874656_5" function="internal">
        <lane id=":1005874656_5_0" index="0" allow="pedestrian delivery bicycle" speed="5.56" length="10.41" shape="423.14,269.98 423.58,267.14 424.84,265.17 426.89,264.08 429.76,263.85"/>
    </edge>
    <edge id=":1007094800_0" function="internal">
        <lane id=":1007094800_0_0" index="0" disallow="tram rail_urban rail rail_electric rail_fast ship container cable_car subway aircraft wheelchair scooter drone" speed="8.33" length="9.45" shape="487.68,345.40 479.37,349.89"/>
    </edge>
    <edge id=":1007094800_1" function="internal">
        <lane id=":1007094800_1_0" index="0" allow="pedestrian delivery bicycle" speed="6.83" length="3.33" shape="487.68,345.40 485.00,346.40 484.54,346.38"/>
    </edge>
    <edge id=":1007094800_6" function="internal">
        <lane id=":1007094800_6_0" index="0" allow="pedestrian delivery bicycle" speed="6.83" length="7.05" shape="484.54,346.38 482.68,346.28 480.71,345.04 479.10,342.67"/>
    </edge>
    <edge id=":1007094800_2" function="internal">
        <lane id=":1007094800_2_0" index="0" allow="pedestrian delivery bicycle" speed="4.99" length="5.05" shape="481.97,341.26 482.75,342.42 483.71,343.02 484.84,343.08 486.15,342.59"/>
    </edge>
    <edge id=":1007094800_3" function="internal">
        <lane id=":1007094800_3_0" index="0" allow="pedestrian delivery bicycle" speed="6.95" length="10.20" shape="481.97,341.26 482.86,343.95 482.73,346.29 481.56,348.27 479.37,349.89"/>
    </edge>
    <edge id=":1007094800_4" function="internal">
        <lane id=":1007094800_4_0" index="0" allow="pedestrian delivery bicycle" speed="5.17" length="5.16" shape="477.86,347.07 478.95,346.26 479.51,345.25 479.56,344.06 479.10,342.67"/>
    </edge>
    <edge id=":1007094800_5" function="internal">
        <lane id=":1007094800_5_0" index="0" disallow="tram rail_urban rail rail_electric rail_fast ship container cable_car subway aircraft wheelchair scooter drone" speed="8.33" length="9.42" shape="477.86,347.07 486.15,342.59"/>
    </edge>
    <edge id=":1007094807_0" function="internal">
        <lane id=":1007094807_0_0" index="0" disallow="tram rail_urban rail rail_electric rail_fast ship container cable_car subway aircraft wheelchair scooter drone" speed="8.33" length="9.36" shape="506.64,335.10 498.41,339.54"/>
    </edge>
    <edge id=":1007094807_1" function="internal">
        <lane id=":1007094807_1_0" index="0" allow="pedestrian delivery bicycle" speed="6.95" length="3.16" shape="506.64,335.10 504.09,336.01 503.64,335.99"/>
    </edge>
    <edge id=":1007094807_6" function="internal">
        <lane id=":1007094807_6_0" index="0" allow="pedestrian delivery bicycle" speed="6.95" length="6.99" shape="503.64,335.99 501.80,335.89 499.79,334.72 498.04,332.51"/>
    </edge>
    <edge id=":1007094807_2" function="internal">
        <lane id=":1007094807_2_0" index="0" allow="pedestrian delivery bicycle" speed="5.17" length="5.15" shape="500.80,330.88 501.69,332.03 502.71,332.64 503.86,332.72 505.14,332.28"/>
    </edge>
    <edge id=":1007094807_3" function="internal">
        <lane id=":1007094807_3_0" index="0" allow="pedestrian delivery bicycle" speed="6.84" length="10.32" shape="500.80,330.88 501.88,333.51 501.84,335.83 500.68,337.84 498.41,339.54"/>
    </edge>
    <edge id=":1007094807_4" function="internal">
        <lane id=":1007094807_4_0" index="0" allow="pedestrian delivery bicycle" speed="5.01" length="5.04" shape="496.87,336.73 497.99,335.90 498.55,334.92 498.57,333.79 498.04,332.51"/>
    </edge>
    <edge id=":1007094807_5" function="internal">
        <lane id=":1007094807_5_0" index="0" disallow="tram rail_urban rail rail_electric rail_fast ship container cable_car subway aircraft wheelchair scooter drone" speed="8.33" length="9.39" shape="496.87,336.73 505.14,332.28"/>
    </edge>
    <edge id=":1007094893_0" function="internal">
        <lane id=":1007094893_0_0" index="0" allow="pedestrian delivery bicycle" speed="5.56" length="5.97" shape="494.26,326.48 493.26,325.55 492.02,325.15 490.55,325.26 488.83,325.88"/>
    </edge>
    <edge id=":1007094893_1" function="internal">
        <lane id=":1007094893_1_0" index="0" allow="pedestrian delivery bicycle" speed="5.56" length="9.43" shape="494.26,326.48 488.96,318.68"/>
    </edge>
    <edge id=":1007094893_2" function="internal">
        <lane id=":1007094893_2_0" index="0" allow="pedestrian delivery bicycle" speed="5.56" length="9.20" shape="491.66,316.96 496.83,324.57"/>
    </edge>
    <edge id=":1007094893_3" function="internal">
        <lane id=":1007094893_3_0" index="0" allow="pedestrian delivery bicycle" speed="5.56" length="10.98" shape="491.66,316.96 492.86,319.69 492.79,322.08 491.45,324.15 488.83,325.88"/>
    </edge>
    <edge id=":1007094893_4" function="internal">
        <lane id=":1007094893_4_0" index="0" allow="pedestrian delivery bicycle" speed="4.94" length="5.19" shape="487.64,322.91 488.87,322.09 489.50,321.11 489.53,319.97 488.96,318.68"/>
    </edge>
    <edge id=":1007094893_5" function="internal">
        <lane id=":1007094893_5_0" index="0" allow="pedestrian delivery bicycle" speed="5.56" length="10.25" shape="487.64,322.91 490.41,321.95 492.86,321.91 495.00,322.78 496.83,324.57"/>
    </edge>
    <edge id=":1051761437_0" function="internal">
        <lane id=":1051761437_0_0" index="0" allow="pedestrian delivery bicycle" speed="5.02" length="5.06" shape="138.72,370.12 138.41,368.76 137.74,367.85 136.71,367.37 135.31,367.33"/>
    </edge>
    <edge id=":1051761437_1" function="internal">
        <lane id=":1051761437_1_0" index="0" disallow="tram rail_urban rail rail_electric rail_fast ship container cable_car subway aircraft wheelchair scooter drone" speed="8.33" length="9.49" width="3.25" shape="138.72,370.12 137.73,360.69"/>
    </edge>
    <edge id=":1051761437_2" function="internal">
        <lane id=":1051761437_2_0" index="0" disallow="tram rail_urban rail rail_electric rail_fast ship container cable_car subway aircraft wheelchair scooter drone" speed="8.33" length="9.66" width="3.25" shape="140.95,360.26 141.96,369.87"/>
    </edge>
    <edge id=":1051761437_3" function="internal">
        <lane id=":1051761437_3_0" index="0" allow="pedestrian delivery bicycle" speed="6.89" length="3.46" shape="140.95,360.26 140.91,363.07 140.65,363.66"/>
    </edge>
    <edge id=":1051761437_6" function="internal">
        <lane id=":1051761437_6_0" index="0" allow="pedestrian delivery bicycle" speed="6.89" length="6.90" shape="140.65,363.66 139.96,365.19 138.09,366.61 135.31,367.33"/>
    </edge>
    <edge id=":1051761437_4" function="internal">
        <lane id=":1051761437_4_0" index="0" allow="pedestrian delivery bicycle" speed="5.05" length="5.09" width="3.25" shape="134.94,364.15 136.32,363.80 137.24,363.10 137.71,362.06 137.73,360.69"/>
    </edge>
    <edge id=":1051761437_5" function="internal">
        <lane id=":1051761437_5_0" index="0" allow="pedestrian delivery bicycle" speed="6.85" length="10.40" width="3.25" shape="134.94,364.15 137.82,364.23 139.95,365.21 141.33,367.09 141.96,369.87"/>
    </edge>
    <edge id=":10568487725_0" function="internal">
        <lane id=":10568487725_0_0" index="0" disallow="tram rail_urban rail rail_electric rail_fast ship container cable_car subway aircraft wheelchair scooter drone" speed="13.89" length="0.32" shape="216.83,962.29 216.52,962.31"/>
    </edge>
    <edge id=":10568487725_1" function="internal">
        <lane id=":10568487725_1_0" index="0" disallow="tram rail_urban rail rail_electric rail_fast ship container cable_car subway aircraft wheelchair scooter drone" speed="13.89" length="0.29" shape="216.09,955.93 216.37,955.91"/>
        <lane id=":10568487725_1_1" index="1" disallow="tram rail_urban rail rail_electric rail_fast ship container cable_car subway aircraft wheelchair scooter drone" speed="13.89" length="0.29" shape="216.30,959.12 216.60,959.10"/>
    </edge>
    <edge id=":10588769756_0" function="internal">
        <lane id=":10588769756_0_0" index="0" disallow="tram rail_urban rail rail_electric rail_fast ship container cable_car subway aircraft wheelchair scooter drone" speed="11.11" length="0.27" shape="1050.94,709.73 1051.06,709.44"/>
        <lane id=":10588769756_0_1" index="1" disallow="tram rail_urban rail rail_electric rail_fast ship container cable_car subway aircraft wheelchair scooter drone" speed="11.11" length="0.27" shape="1053.91,710.90 1054.00,710.68"/>
    </edge>
    <edge id=":10594279710_0" function="internal">
        <lane id=":10594279710_0_0" index="0" allow="pedestrian delivery bicycle" speed="5.56" length="4.56" shape="660.85,265.59 659.93,266.53 659.13,266.99 658.19,267.21 656.86,267.45"/>
    </edge>
    <edge id=":10734183490_0" function="internal">
        <lane id=":10734183490_0_0" index="0" disallow="tram rail_urban rail rail_electric rail_fast ship container cable_car subway aircraft wheelchair scooter drone" speed="8.33" length="5.03" shape="790.30,581.99 790.67,587.03"/>
        <lane id=":10734183490_0_1" index="1" disallow="tram rail_urban rail rail_electric rail_fast ship container cable_car subway aircraft wheelchair scooter drone" speed="8.33" length="5.03" shape="787.11,582.24 787.48,587.25"/>
    </edge>
    <edge id=":10764510703_0" function="internal">
        <lane id=":10764510703_0_0" index="0" disallow="pedestrian tram rail_urban rail rail_electric rail_fast ship container cable_car subway aircraft wheelchair scooter drone" speed="8.33" length="8.40" shape="209.94,324.83 209.24,322.42 208.01,320.98 206.79,319.54 206.08,317.13"/>
        <lane id=":10764510703_0_1" index="1" disallow="pedestrian tram rail_urban rail rail_electric rail_fast ship container cable_car subway aircraft wheelchair scooter drone" speed="8.33" length="8.40" shape="209.94,324.83 209.27,316.86"/>
    </edge>
    <edge id=":10764510703_2" function="internal">
        <lane id=":10764510703_2_0" index="0" disallow="pedestrian tram rail_urban rail rail_electric rail_fast ship container cable_car subway aircraft wheelchair scooter drone" speed="8.33" length="8.00" shape="212.46,316.59 213.13,324.56"/>
    </edge>
    <edge id=":10764510704_0" function="internal">
        <lane id=":10764510704_0_0" index="0" disallow="pedestrian tram rail_urban rail rail_electric rail_fast ship container cable_car subway aircraft wheelchair scooter drone" speed="8.33" length="0.33" shape="212.31,353.99 212.29,353.67"/>
    </edge>
    <edge id=":10764510704_1" function="internal">
        <lane id=":10764510704_1_0" index="0" disallow="pedestrian tram rail_urban rail rail_electric rail_fast ship container cable_car subway aircraft wheelchair scooter drone" speed="8.33" length="0.28" shape="218.67,353.25 218.69,353.51"/>
        <lane id=":10764510704_1_1" index="1" disallow="pedestrian tram rail_urban rail rail_electric rail_fast ship container cable_car subway aircraft wheelchair scooter drone" speed="8.33" length="0.28" shape="215.48,353.46 215.50,353.75"/>
    </edge>
    <edge id=":10764539250_0" function="internal">
        <lane id=":10764539250_0_0" index="0" disallow="pedestrian tram rail_urban rail rail_electric rail_fast ship container cable_car subway aircraft wheelchair scooter drone" speed="8.33" length="0.10" shape="237.44,686.19 237.44,686.19"/>
    </edge>
    <edge id=":10764539250_1" function="internal">
        <lane id=":10764539250_1_0" index="0" disallow="pedestrian tram rail_urban rail rail_electric rail_fast ship container cable_car subway aircraft wheelchair scooter drone" speed="8.33" length="0.10" shape="240.63,685.93 240.63,685.93"/>
    </edge>
    <edge id=":10764539281_0" function="internal">
        <lane id=":10764539281_0_0" index="0" disallow="pedestrian tram rail_urban rail rail_electric rail_fast ship container cable_car subway aircraft wheelchair scooter drone" speed="8.33" length="0.30" shape="243.59,766.43 243.57,766.13"/>
    </edge>
    <edge id=":10764539281_1" function="internal">
        <lane id=":10764539281_1_0" index="0" disallow="pedestrian tram rail_urban rail rail_electric rail_fast ship container cable_car subway aircraft wheelchair scooter drone" speed="8.33" length="0.30" shape="246.76,765.89 246.78,766.18"/>
    </edge>
    <edge id=":10764539291_0" function="internal">
        <lane id=":10764539291_0_0" index="0" disallow="pedestrian tram rail_urban rail rail_electric rail_fast ship container cable_car subway aircraft wheelchair scooter drone" speed="11.11" length="0.20" shape="253.14,878.23 253.12,878.04"/>
    </edge>
    <edge id=":10764539291_1" function="internal">
        <lane id=":10764539291_1_0" index="0" disallow="pedestrian tram rail_urban rail rail_electric rail_fast ship container cable_car subway aircraft wheelchair scooter drone" speed="8.33" length="0.30" shape="256.30,877.68 256.33,877.98"/>
    </edge>
    <edge id=":10769720379_0" function="internal">
        <lane id=":10769720379_0_0" index="0" allow="pedestrian bicycle" speed="5.03" length="4.60" width="2.00" shape="628.50,921.57 628.97,922.88 629.63,923.79 630.50,924.31 631.56,924.44"/>
    </edge>
    <edge id=":10769720379_1" function="internal">
        <lane id=":10769720379_1_0" index="0" allow="pedestrian bicycle" speed="4.24" length="4.13" width="2.00" shape="624.50,924.82 625.64,924.60 626.37,924.06 626.67,923.21 626.56,922.05"/>
    </edge>
    <edge id=":10769720379_2" function="internal">
        <lane id=":10769720379_2_0" index="0" allow="pedestrian bicycle" speed="5.56" length="7.07" width="2.00" shape="624.50,924.82 631.56,924.44"/>
    </edge>
    <edge id=":11210667091_0" function="internal">
        <lane id=":11210667091_0_0" index="0" disallow="tram rail_urban rail rail_electric rail_fast ship container cable_car subway aircraft wheelchair scooter drone" speed="13.89" length="9.32" shape="189.79,964.11 180.50,964.78"/>
    </edge>
    <edge id=":11210667091_1" function="internal">
        <lane id=":11210667091_1_0" index="0" allow="pedestrian delivery bicycle" speed="7.29" length="2.99" shape="189.79,964.11 186.99,963.79 186.85,963.70"/>
    </edge>
    <edge id=":11210667091_7" function="internal">
        <lane id=":11210667091_7_0" index="0" allow="pedestrian delivery bicycle" speed="7.29" length="8.65" shape="186.85,963.70 184.92,962.41 183.58,959.97 182.97,956.47"/>
    </edge>
    <edge id=":11210667091_2" function="internal">
        <lane id=":11210667091_2_0" index="0" allow="pedestrian delivery bicycle" speed="4.56" length="3.91" shape="186.16,956.28 186.40,956.99 187.02,957.46 188.00,957.71 189.37,957.72"/>
    </edge>
    <edge id=":11210667091_3" function="internal">
        <lane id=":11210667091_3_0" index="0" allow="pedestrian delivery bicycle" speed="7.32" length="11.55" shape="186.16,956.28 185.99,959.82 184.99,962.41 183.16,964.07 180.50,964.78"/>
    </edge>
    <edge id=":11210667091_4" function="internal">
        <lane id=":11210667091_4_0" index="0" allow="pedestrian delivery bicycle" speed="4.59" length="3.92" shape="180.01,958.39 181.34,958.19 182.28,957.80 182.82,957.22 182.97,956.47"/>
    </edge>
    <edge id=":11210667091_5" function="internal">
        <lane id=":11210667091_5_0" index="0" disallow="tram rail_urban rail rail_electric rail_fast ship container cable_car subway aircraft wheelchair scooter drone" speed="13.89" length="9.37" shape="180.01,958.39 189.37,957.72"/>
        <lane id=":11210667091_5_1" index="1" disallow="tram rail_urban rail rail_electric rail_fast ship container cable_car subway aircraft wheelchair scooter drone" speed="13.89" length="9.37" shape="180.25,961.59 189.58,960.92"/>
    </edge>
    <edge id=":11210667092_0" function="internal">
        <lane id=":11210667092_0_0" index="0" allow="pedestrian delivery bicycle" speed="5.56" length="3.60" shape="182.96,956.27 182.76,952.68"/>
    </edge>
    <edge id=":11210667092_1" function="internal">
        <lane id=":11210667092_1_0" index="0" allow="pedestrian bicycle" speed="5.56" length="6.58" width="2.00" shape="182.96,956.27 183.32,955.78 184.48,955.38 186.44,955.07 189.19,954.85"/>
    </edge>
    <edge id=":11210667092_2" function="internal">
        <lane id=":11210667092_2_0" index="0" allow="pedestrian bicycle" speed="4.84" length="4.53" width="2.00" shape="185.96,952.52 186.21,953.60 186.83,954.35 187.82,954.77 189.19,954.85"/>
    </edge>
    <edge id=":11210667092_3" function="internal">
        <lane id=":11210667092_3_0" index="0" allow="pedestrian delivery bicycle" speed="5.56" length="3.57" shape="185.96,952.52 186.15,956.08"/>
    </edge>
    <edge id=":11210667092_4" function="internal">
        <lane id=":11210667092_4_0" index="0" allow="pedestrian bicycle" speed="4.72" length="4.58" width="2.00" shape="179.79,955.43 181.14,955.18 182.09,954.63 182.63,953.80 182.76,952.68"/>
    </edge>
    <edge id=":11210667092_5" function="internal">
        <lane id=":11210667092_5_0" index="0" allow="pedestrian bicycle" speed="5.56" length="9.41" width="2.00" shape="179.79,955.43 189.19,954.85"/>
    </edge>
    <edge id=":11210667092_6" function="internal">
        <lane id=":11210667092_6_0" index="0" allow="pedestrian bicycle" speed="5.50" length="6.58" width="2.00" shape="179.79,955.43 182.55,955.31 184.53,955.37 185.73,955.63 186.15,956.08"/>
    </edge>
    <edge id=":11210667096_0" function="internal">
        <lane id=":11210667096_0_0" index="0" allow="pedestrian delivery bicycle" speed="5.24" length="5.16" shape="180.80,933.48 180.43,932.20 179.69,931.31 178.60,930.80 177.14,930.69"/>
    </edge>
    <edge id=":11210667096_1" function="internal">
        <lane id=":11210667096_1_0" index="0" allow="pedestrian delivery bicycle" speed="5.56" length="9.31" shape="180.80,933.48 179.90,924.22"/>
    </edge>
    <edge id=":11210667096_2" function="internal">
        <lane id=":11210667096_2_0" index="0" allow="pedestrian delivery bicycle" speed="5.56" length="9.11" shape="183.09,924.00 183.97,933.07"/>
    </edge>
    <edge id=":11210667096_3" function="internal">
        <lane id=":11210667096_3_0" index="0" allow="pedestrian delivery bicycle" speed="5.56" length="10.25" shape="183.09,924.00 182.88,926.81 181.82,928.86 179.90,930.15 177.14,930.69"/>
    </edge>
    <edge id=":11210667096_4" function="internal">
        <lane id=":11210667096_4_0" index="0" allow="pedestrian delivery bicycle" speed="5.02" length="5.02" shape="176.98,927.49 178.34,927.23 179.27,926.60 179.79,925.59 179.90,924.22"/>
    </edge>
    <edge id=":11210667096_5" function="internal">
        <lane id=":11210667096_5_0" index="0" allow="pedestrian delivery bicycle" speed="5.56" length="10.03" shape="176.98,927.49 179.75,927.73 181.84,928.73 183.25,930.51 183.97,933.07"/>
    </edge>
    <edge id=":11210667099_0" function="internal">
        <lane id=":11210667099_0_0" index="0" allow="pedestrian delivery bicycle" speed="5.56" length="9.38" shape="193.90,907.75 184.57,908.73"/>
    </edge>
    <edge id=":11210667099_1" function="internal">
        <lane id=":11210667099_1_0" index="0" allow="pedestrian delivery bicycle" speed="5.56" length="10.57" shape="193.90,907.75 190.97,907.62 188.86,906.58 187.57,904.61 187.09,901.72"/>
    </edge>
    <edge id=":11210667099_2" function="internal">
        <lane id=":11210667099_2_0" index="0" allow="pedestrian delivery bicycle" speed="4.96" length="5.10" shape="190.29,901.65 190.52,903.05 191.15,904.00 192.16,904.50 193.58,904.56"/>
    </edge>
    <edge id=":11210667099_3" function="internal">
        <lane id=":11210667099_3_0" index="0" allow="pedestrian delivery bicycle" speed="5.56" length="10.18" shape="190.29,901.65 189.98,904.51 188.93,906.64 187.12,908.04 184.57,908.73"/>
    </edge>
    <edge id=":11210667099_4" function="internal">
        <lane id=":11210667099_4_0" index="0" allow="pedestrian delivery bicycle" speed="5.34" length="5.35" shape="184.22,905.55 185.50,905.19 186.41,904.43 186.94,903.27 187.09,901.72"/>
    </edge>
    <edge id=":11210667099_5" function="internal">
        <lane id=":11210667099_5_0" index="0" allow="pedestrian delivery bicycle" speed="5.56" length="9.41" shape="184.22,905.55 193.58,904.56"/>
    </edge>
    <edge id=":11210667100_0" function="internal">
        <lane id=":11210667100_0_0" index="0" allow="pedestrian bicycle" speed="4.51" length="3.82" width="2.00" shape="186.80,891.60 186.63,890.51 186.18,889.74 185.47,889.30 184.49,889.19"/>
    </edge>
    <edge id=":11210667100_1" function="internal">
        <lane id=":11210667100_1_0" index="0" allow="pedestrian bicycle" speed="5.52" length="6.65" width="2.00" shape="186.15,887.11 187.78,887.32 188.96,888.12 189.70,889.52 190.00,891.50"/>
    </edge>
    <edge id=":11210667102_0" function="internal">
        <lane id=":11210667102_0_0" index="0" allow="pedestrian delivery bicycle" speed="5.56" length="5.00" shape="173.45,930.87 168.46,931.11"/>
    </edge>
    <edge id=":11210667102_1" function="internal">
        <lane id=":11210667102_1_0" index="0" allow="pedestrian delivery bicycle" speed="5.56" length="4.99" shape="168.31,927.92 173.29,927.68"/>
    </edge>
    <edge id=":11210667103_0" function="internal">
        <lane id=":11210667103_0_0" index="0" allow="pedestrian delivery bicycle" speed="5.56" length="5.02" shape="187.08,900.80 186.94,895.78"/>
    </edge>
    <edge id=":11210667103_1" function="internal">
        <lane id=":11210667103_1_0" index="0" allow="pedestrian delivery bicycle" speed="5.56" length="5.06" shape="190.14,895.68 190.27,900.74"/>
    </edge>
    <edge id=":11210667105_0" function="internal">
        <lane id=":11210667105_0_0" index="0" allow="pedestrian delivery bicycle" speed="5.56" length="4.99" shape="200.60,907.05 195.64,907.57"/>
    </edge>
    <edge id=":11210667105_1" function="internal">
        <lane id=":11210667105_1_0" index="0" allow="pedestrian delivery bicycle" speed="5.56" length="4.97" shape="195.32,904.39 200.26,903.87"/>
    </edge>
    <edge id=":11210667107_0" function="internal">
        <lane id=":11210667107_0_0" index="0" allow="pedestrian delivery bicycle" speed="5.56" length="5.00" shape="219.04,905.05 214.06,905.59"/>
    </edge>
    <edge id=":11210667107_1" function="internal">
        <lane id=":11210667107_1_0" index="0" allow="pedestrian delivery bicycle" speed="5.56" length="5.00" shape="213.72,902.41 218.69,901.87"/>
    </edge>
    <edge id=":1121793667_0" function="internal">
        <lane id=":1121793667_0_0" index="0" allow="pedestrian bicycle" speed="5.56" length="9.01" width="1.50" shape="990.67,1009.23 987.99,1009.20 986.16,1009.26 984.34,1009.49 981.72,1009.96"/>
    </edge>
    <edge id=":1121793667_1" function="internal">
        <lane id=":1121793667_1_0" index="0" allow="pedestrian bicycle" speed="5.56" length="8.27" width="1.50" shape="990.67,1009.23 987.90,1008.95 985.94,1008.20 984.79,1006.98 984.45,1005.29"/>
    </edge>
    <edge id=":1121793667_2" function="internal">
        <lane id=":1121793667_2_0" index="0" allow="pedestrian bicycle" speed="4.73" length="4.35" width="1.50" shape="987.65,1005.40 987.81,1006.40 988.37,1007.13 989.33,1007.57 990.69,1007.73"/>
    </edge>
    <edge id=":1121793667_3" function="internal">
        <lane id=":1121793667_3_0" index="0" allow="pedestrian bicycle" speed="5.56" length="8.09" width="1.50" shape="987.65,1005.40 987.24,1006.99 986.11,1008.28 984.27,1009.27 981.72,1009.96"/>
    </edge>
    <edge id=":1121793667_4" function="internal">
        <lane id=":1121793667_4_0" index="0" allow="pedestrian bicycle" speed="5.12" length="4.80" width="1.50" shape="981.44,1008.48 982.73,1008.08 983.66,1007.42 984.23,1006.49 984.45,1005.29"/>
    </edge>
    <edge id=":1121793667_5" function="internal">
        <lane id=":1121793667_5_0" index="0" allow="pedestrian bicycle" speed="5.56" length="9.31" width="1.50" shape="981.44,1008.48 984.16,1008.00 986.04,1007.76 987.93,1007.70 990.69,1007.73"/>
    </edge>