<?xml version="1.0" encoding="UTF-8"?>

<!-- generated on 2025-08-01 13:29:35 by Eclipse SUMO netedit Version 1.24.0
<neteditConfiguration xmlns:xsi="http://www.w3.org/2001/XMLSchema-instance" xsi:noNamespaceSchemaLocation="http://sumo.dlr.de/xsd/neteditConfiguration.xsd">

    <input>
        <sumo-net-file value="network2.net.xml"/>
    </input>

    <output>
        <output-file value="network2.net.xml"/>
    </output>

    <processing>
        <geometry.min-radius.fix.railways value="false"/>
        <geometry.avoid-overlap value="false"/>
        <geometry.max-grade.fix value="false"/>
        <offset.disable-normalization value="true"/>
        <lefthand value="0"/>
    </processing>

    <tls_building>
        <tls.ignore-internal-junction-jam value="1"/>
    </tls_building>

    <junctions>
        <no-internal-links value="false"/>
        <no-turnarounds value="true"/>
        <junctions.corner-detail value="5"/>
        <junctions.limit-turn-speed value="5.50"/>
        <rectangular-lane-cut value="0"/>
    </junctions>

    <pedestrian>
        <walkingareas value="0"/>
    </pedestrian>

</neteditConfiguration>
-->

<net version="1.20" junctionCornerDetail="5" limitTurnSpeed="5.50" tlsIgnoreInternalJunctionJam="1" avoidOverlap="0" xmlns:xsi="http://www.w3.org/2001/XMLSchema-instance" xsi:noNamespaceSchemaLocation="http://sumo.dlr.de/xsd/net_file.xsd">

    <location netOffset="-454984.28,-5428306.14" convBoundary="0.00,0.00,1485.39,1895.74" origBoundary="8.355408,49.003492,8.444808,49.023125" projParameter="+proj=utm +zone=32 +ellps=WGS84 +datum=WGS84 +units=m +no_defs"/>

    <type id="cycleway.lane" allow="bicycle" bikeLaneWidth="1.25"/>
    <type id="cycleway.lane|highway.primary" priority="12" numLanes="2" speed="27.78" disallow="pedestrian tram rail_urban rail rail_electric rail_fast ship container cable_car subway aircraft wheelchair scooter drone" oneway="0" sidewalkWidth="3.00" bikeLaneWidth="1.25"/>
    <type id="cycleway.lane|highway.residential" priority="3" numLanes="1" speed="13.89" disallow="pedestrian tram rail_urban rail rail_electric rail_fast ship container cable_car subway aircraft wheelchair scooter drone" oneway="0" sidewalkWidth="2.00" bikeLaneWidth="1.25"/>
    <type id="cycleway.lane|highway.secondary" priority="11" numLanes="1" speed="27.78" disallow="pedestrian tram rail_urban rail rail_electric rail_fast ship container cable_car subway aircraft wheelchair scooter drone" oneway="0" sidewalkWidth="3.00" bikeLaneWidth="1.25"/>
    <type id="cycleway.track|highway.primary" priority="12" numLanes="2" speed="27.78" disallow="pedestrian tram rail_urban rail rail_electric rail_fast ship container cable_car subway aircraft wheelchair scooter drone" oneway="0" sidewalkWidth="3.00" bikeLaneWidth="1.50"/>
    <type id="highway.cycleway" priority="1" numLanes="1" speed="5.56" allow="bicycle" oneway="0" width="2.00"/>
    <type id="highway.footway" priority="1" numLanes="1" speed="2.78" allow="pedestrian" oneway="1" width="2.00"/>
    <type id="highway.living_street" priority="2" numLanes="1" speed="2.78" disallow="tram rail_urban rail rail_electric rail_fast ship container cable_car subway aircraft wheelchair scooter drone" oneway="0"/>
    <type id="highway.path" priority="1" numLanes="1" speed="5.56" allow="pedestrian bicycle" oneway="0" width="2.00"/>
    <type id="highway.pedestrian" priority="1" numLanes="1" speed="2.78" allow="pedestrian" oneway="1" width="2.00"/>
    <type id="highway.primary" priority="12" numLanes="2" speed="27.78" disallow="pedestrian tram rail_urban rail rail_electric rail_fast ship container cable_car subway aircraft wheelchair scooter drone" oneway="0" sidewalkWidth="3.00"/>
    <type id="highway.primary_link" priority="7" numLanes="1" speed="22.22" disallow="pedestrian tram rail_urban rail rail_electric rail_fast ship container cable_car subway aircraft wheelchair scooter drone" oneway="0" sidewalkWidth="3.00"/>
    <type id="highway.residential" priority="3" numLanes="1" speed="13.89" disallow="pedestrian tram rail_urban rail rail_electric rail_fast ship container cable_car subway aircraft wheelchair scooter drone" oneway="0" sidewalkWidth="2.00"/>
    <type id="highway.secondary" priority="11" numLanes="1" speed="27.78" disallow="pedestrian tram rail_urban rail rail_electric rail_fast ship container cable_car subway aircraft wheelchair scooter drone" oneway="0" sidewalkWidth="3.00"/>
    <type id="highway.service" priority="1" numLanes="1" speed="5.56" allow="pedestrian delivery bicycle" oneway="0"/>
    <type id="highway.steps" priority="1" numLanes="1" speed="1.39" allow="pedestrian" oneway="1" width="2.00"/>
    <type id="highway.tertiary" priority="10" numLanes="1" speed="22.22" disallow="pedestrian tram rail_urban rail rail_electric rail_fast ship container cable_car subway aircraft wheelchair scooter drone" oneway="0" sidewalkWidth="3.00"/>
    <type id="railway.tram" priority="17" numLanes="1" speed="13.89" allow="tram" oneway="1"/>

    <edge id=":1005874602_0" function="internal">
        <lane id=":1005874602_0_0" index="0" disallow="pedestrian tram rail_urban rail rail_electric rail_fast ship container cable_car subway aircraft wheelchair scooter drone" speed="1.39" length="3.05" width="6.00" shape="380.86,258.66 378.00,259.73"/>
    </edge>
    <edge id=":1005874602_w0" function="walkingarea">
        <lane id=":1005874602_w0_0" index="0" allow="pedestrian" speed="2.78" length="5.76" width="6.00" shape="377.91,258.86 374.72,259.07 375.00,259.80 381.00,259.66 385.80,258.34 383.80,258.47"/>
    </edge>
    <edge id=":1005874604_0" function="internal">
        <lane id=":1005874604_0_0" index="0" disallow="pedestrian tram rail_urban rail rail_electric rail_fast ship container cable_car subway aircraft wheelchair scooter drone" speed="8.33" length="3.83" width="3.02" shape="365.32,166.93 361.50,167.21"/>
    </edge>
    <edge id=":1005874604_1" function="internal">
        <lane id=":1005874604_1_0" index="0" disallow="pedestrian tram rail_urban rail rail_electric rail_fast ship container cable_car subway aircraft wheelchair scooter drone" speed="8.33" length="3.97" width="3.02" shape="361.21,164.20 365.17,163.91"/>
    </edge>
    <edge id=":1005874604_c0" function="crossing" crossingEdges="-384971140#0 384971140#0">
        <lane id=":1005874604_c0_0" index="0" allow="pedestrian" speed="2.78" length="6.04" width="4.00" shape="363.10,162.51 363.40,168.54" outlineShape="365.09,162.30 365.40,168.35 361.41,168.64 365.40,168.35 361.41,168.64 361.10,162.70 365.09,162.40 364.99,160.41 360.88,160.71 361.07,162.70"/>
    </edge>
    <edge id=":1005874604_c1" function="crossing" crossingEdges="384971140#1 -384971140#1">
        <lane id=":1005874604_c1_0" index="0" allow="pedestrian" speed="2.78" length="6.04" width="4.00" shape="363.64,168.52 363.06,162.51" outlineShape="361.65,168.71 361.07,162.70 364.87,160.42 360.88,160.71 361.06,162.60 365.05,162.32 365.63,168.33 365.50,170.34 365.40,168.44 361.41,168.64"/>
    </edge>
    <edge id=":1005874604_w0" function="walkingarea">
        <lane id=":1005874604_w0_0" index="0" allow="pedestrian" speed="2.78" length="2.08" width="4.00" shape="365.63,168.33 361.65,168.71 361.84,170.70 365.50,170.43 365.40,168.44 361.41,168.64"/>
    </edge>
    <edge id=":1005874604_w1" function="walkingarea">
        <lane id=":1005874604_w1_0" index="0" allow="pedestrian" speed="2.78" length="2.19" width="4.00" shape="361.10,162.61 365.09,162.40 364.99,160.41 360.88,160.71 361.07,162.70 365.05,162.32"/>
    </edge>
    <edge id=":1005874623_0" function="internal">
        <lane id=":1005874623_0_0" index="0" allow="pedestrian delivery bicycle" speed="3.47" length="6.43" width="6.00" shape="382.92,264.26 380.87,264.38 379.45,264.97 378.65,266.02 378.49,267.53"/>
    </edge>
    <edge id=":1005874623_1" function="internal">
        <lane id=":1005874623_1_0" index="0" allow="pedestrian delivery bicycle" speed="3.65" length="4.67" shape="382.92,264.26 381.76,263.40 381.39,262.59 381.83,261.80 383.06,261.06"/>
    </edge>
    <edge id=":1005874623_2" function="internal">
        <lane id=":1005874623_2_0" index="0" allow="pedestrian delivery bicycle" speed="3.47" length="5.33" shape="378.00,259.93 378.66,260.52 380.17,260.85 381.85,261.00 383.06,261.06"/>
    </edge>
    <edge id=":1005874623_3" function="internal">
        <lane id=":1005874623_3_0" index="0" disallow="tram rail_urban rail rail_electric rail_fast ship container cable_car subway aircraft wheelchair scooter drone" speed="1.39" length="7.62" width="6.00" shape="378.00,259.93 378.49,267.53"/>
    </edge>
    <edge id=":1005874623_w0" function="walkingarea">
        <lane id=":1005874623_w0_0" index="0" allow="pedestrian" speed="2.78" length="6.00" width="6.40" shape="375.50,267.78 381.48,267.28 381.57,266.46 381.76,266.18 382.03,265.98 382.40,265.88 382.85,265.85 383.13,259.46 380.95,257.87 374.96,258.01"/>
    </edge>
    <edge id=":1005874626_0" function="internal">
        <lane id=":1005874626_0_0" index="0" disallow="pedestrian tram rail_urban rail rail_electric rail_fast ship container cable_car subway aircraft wheelchair scooter drone" speed="8.33" length="4.01" shape="409.28,387.31 405.73,389.18"/>
    </edge>
    <edge id=":1005874626_1" function="internal">
        <lane id=":1005874626_1_0" index="0" disallow="pedestrian tram rail_urban rail rail_electric rail_fast ship container cable_car subway aircraft wheelchair scooter drone" speed="8.33" length="3.98" shape="404.25,386.35 407.77,384.49"/>
    </edge>
    <edge id=":1005874626_c0" function="crossing" crossingEdges="261741010#1 -261741010#1">
        <lane id=":1005874626_c0_0" index="0" allow="pedestrian" speed="2.78" length="6.40" width="4.00" shape="405.25,384.02 408.27,389.66" outlineShape="407.02,383.09 410.03,388.72 406.49,390.59 407.86,393.26 411.44,391.37 410.03,388.72 406.49,390.59 403.49,384.96 407.02,383.08 405.60,380.43 402.12,382.27 403.51,384.93"/>
    </edge>
    <edge id=":1005874626_c1" function="crossing" crossingEdges="-261741010#0 261741010#0">
        <lane id=":1005874626_c1_0" index="0" allow="pedestrian" speed="2.78" length="6.40" width="4.00" shape="408.24,389.68 405.28,384.00" outlineShape="406.47,390.60 403.51,384.93 406.98,383.00 405.60,380.43 402.12,382.27 403.51,384.93 407.05,383.08 403.49,384.96 407.05,383.08 410.01,388.73 406.47,390.60"/>
    </edge>
    <edge id=":1005874626_w0" function="walkingarea">
        <lane id=":1005874626_w0_0" index="0" allow="pedestrian" speed="2.78" length="2.35" width="4.00" shape="410.02,388.75 406.47,390.60 407.86,393.26 411.44,391.37 410.03,388.72 406.50,390.61"/>
    </edge>
    <edge id=":1005874626_w1" function="walkingarea">
        <lane id=":1005874626_w1_0" index="0" allow="pedestrian" speed="2.78" length="2.32" width="4.00" shape="403.49,384.96 407.02,383.08 405.60,380.43 402.12,382.27 403.51,384.93 407.05,383.08"/>
    </edge>
    <edge id=":1005874656_0" function="internal">
        <lane id=":1005874656_0_0" index="0" allow="pedestrian delivery bicycle" speed="4.99" length="5.06" shape="429.55,267.04 428.16,267.15 427.16,267.69 426.55,268.64 426.33,270.02"/>
    </edge>
    <edge id=":1005874656_1" function="internal">
        <lane id=":1005874656_1_0" index="0" allow="pedestrian delivery bicycle" speed="5.56" length="9.41" shape="429.55,267.04 420.16,266.46"/>
    </edge>
    <edge id=":1005874656_2" function="internal">
        <lane id=":1005874656_2_0" index="0" allow="pedestrian delivery bicycle" speed="3.65" length="4.67" shape="429.55,267.04 428.40,266.17 428.06,265.35 428.51,264.57 429.75,263.85"/>
    </edge>
    <edge id=":1005874656_3" function="internal">
        <lane id=":1005874656_3_0" index="0" allow="pedestrian delivery bicycle" speed="5.56" length="9.42" shape="420.35,263.27 429.75,263.85"/>
    </edge>
    <edge id=":1005874656_4" function="internal">
        <lane id=":1005874656_4_0" index="0" allow="pedestrian delivery bicycle" speed="5.56" length="10.19" shape="420.35,263.27 423.00,263.83 424.88,265.14 425.99,267.21 426.33,270.02"/>
    </edge>
    <edge id=":1005874656_5" function="internal">
        <lane id=":1005874656_5_0" index="0" allow="pedestrian delivery bicycle" speed="3.65" length="4.67" shape="420.35,263.27 421.50,264.14 421.85,264.96 421.40,265.74 420.16,266.46"/>
    </edge>
    <edge id=":1005874656_6" function="internal">
        <lane id=":1005874656_6_0" index="0" allow="pedestrian delivery bicycle" speed="5.20" length="5.20" shape="423.13,269.98 422.96,268.51 422.41,267.43 421.48,266.75 420.16,266.46"/>
    </edge>
    <edge id=":1005874656_7" function="internal">
        <lane id=":1005874656_7_0" index="0" allow="pedestrian delivery bicycle" speed="5.56" length="10.41" shape="423.13,269.98 423.58,267.14 424.83,265.18 426.89,264.08 429.75,263.85"/>
    </edge>
    <edge id=":1005874656_8" function="internal">
        <lane id=":1005874656_8_0" index="0" allow="pedestrian delivery bicycle" speed="3.65" length="4.67" shape="423.13,269.98 423.95,268.79 424.76,268.40 425.55,268.81 426.33,270.02"/>
    </edge>
    <edge id=":1005874656_w0" function="walkingarea">
        <lane id=":1005874656_w0_0" index="0" allow="pedestrian" speed="2.78" length="6.93" width="6.40" shape="429.45,268.64 429.85,262.25 420.44,261.67 420.06,268.06 420.89,268.31 421.18,268.58 421.38,268.94 421.50,269.40 421.53,269.96 427.93,270.05 428.11,269.22 428.32,268.94 428.62,268.75 428.99,268.65"/>
    </edge>
    <edge id=":1007094800_0" function="internal">
        <lane id=":1007094800_0_0" index="0" disallow="pedestrian tram rail_urban rail rail_electric rail_fast ship container cable_car subway aircraft wheelchair scooter drone" speed="8.33" length="9.48" shape="487.80,345.34 479.46,349.85"/>
    </edge>
    <edge id=":1007094800_1" function="internal">
        <lane id=":1007094800_1_0" index="0" allow="delivery bicycle" speed="6.95" length="2.94" shape="487.80,345.34 484.99,346.20"/>
    </edge>
    <edge id=":1007094800_7" function="internal">
        <lane id=":1007094800_7_0" index="0" allow="delivery bicycle" speed="6.95" length="10.02" shape="484.99,346.20 482.38,345.59 479.98,343.52 477.78,339.98"/>
    </edge>
    <edge id=":1007094800_2" function="internal">
        <lane id=":1007094800_2_0" index="0" allow="delivery bicycle" speed="5.97" length="7.70" shape="480.65,338.57 482.02,340.90 483.41,342.33 484.83,342.88 486.27,342.53"/>
    </edge>
    <edge id=":1007094800_3" function="internal">
        <lane id=":1007094800_3_0" index="0" allow="delivery bicycle" speed="6.95" length="12.67" shape="480.65,338.57 482.13,342.44 482.42,345.61 481.53,348.08 479.46,349.85"/>
    </edge>
    <edge id=":1007094800_4" function="internal">
        <lane id=":1007094800_4_0" index="0" allow="pedestrian delivery bicycle" speed="3.65" length="4.67" shape="480.65,338.57 480.46,340.00 479.92,340.71 479.02,340.71 477.78,339.98"/>
    </edge>
    <edge id=":1007094800_5" function="internal">
        <lane id=":1007094800_5_0" index="0" allow="delivery bicycle" speed="6.14" length="7.71" shape="477.96,347.02 478.92,346.06 479.21,344.57 478.83,342.54 477.78,339.98"/>
    </edge>
    <edge id=":1007094800_6" function="internal">
        <lane id=":1007094800_6_0" index="0" disallow="pedestrian tram rail_urban rail rail_electric rail_fast ship container cable_car subway aircraft wheelchair scooter drone" speed="8.33" length="9.45" shape="477.96,347.02 486.27,342.53"/>
    </edge>
    <edge id=":1007094800_w0" function="walkingarea">
        <lane id=":1007094800_w0_0" index="0" allow="pedestrian" speed="2.78" length="9.51" width="3.00" shape="480.22,351.26 481.63,353.90 490.01,349.38 488.57,346.74"/>
    </edge>
    <edge id=":1007094800_w1" function="walkingarea">
        <lane id=":1007094800_w1_0" index="0" allow="pedestrian" speed="2.78" length="5.92" width="3.20" shape="485.50,341.13 484.06,338.49 482.09,337.87 479.21,339.28 476.34,340.69 475.79,342.96 477.20,345.61"/>
    </edge>
    <edge id=":1007094807_0" function="internal">
        <lane id=":1007094807_0_0" index="0" disallow="pedestrian tram rail_urban rail rail_electric rail_fast ship container cable_car subway aircraft wheelchair scooter drone" speed="8.33" length="9.34" shape="506.54,335.15 498.32,339.60"/>
    </edge>
    <edge id=":1007094807_1" function="internal">
        <lane id=":1007094807_1_0" index="0" allow="delivery bicycle" speed="6.95" length="2.71" shape="506.54,335.15 503.93,335.88"/>
    </edge>
    <edge id=":1007094807_7" function="internal">
        <lane id=":1007094807_7_0" index="0" allow="delivery bicycle" speed="6.95" length="9.90" shape="503.93,335.88 501.39,335.25 498.92,333.27 496.52,329.93"/>
    </edge>
    <edge id=":1007094807_2" function="internal">
        <lane id=":1007094807_2_0" index="0" allow="delivery bicycle" speed="6.15" length="7.68" shape="499.27,328.30 500.83,330.58 502.30,332.01 503.70,332.59 505.03,332.33"/>
    </edge>
    <edge id=":1007094807_3" function="internal">
        <lane id=":1007094807_3_0" index="0" allow="delivery bicycle" speed="6.95" length="12.89" shape="499.27,328.30 501.02,332.06 501.44,335.20 500.54,337.71 498.32,339.60"/>
    </edge>
    <edge id=":1007094807_4" function="internal">
        <lane id=":1007094807_4_0" index="0" allow="pedestrian delivery bicycle" speed="3.65" length="4.67" shape="499.27,328.30 499.19,329.74 498.71,330.49 497.82,330.55 496.52,329.93"/>
    </edge>
    <edge id=":1007094807_5" function="internal">
        <lane id=":1007094807_5_0" index="0" allow="delivery bicycle" speed="5.99" length="7.67" shape="496.79,336.79 497.84,335.77 498.15,334.29 497.71,332.34 496.52,329.93"/>
    </edge>
    <edge id=":1007094807_6" function="internal">
        <lane id=":1007094807_6_0" index="0" disallow="pedestrian tram rail_urban rail rail_electric rail_fast ship container cable_car subway aircraft wheelchair scooter drone" speed="8.33" length="9.37" shape="496.79,336.79 505.03,332.33"/>
    </edge>
    <edge id=":1007094807_w0" function="walkingarea">
        <lane id=":1007094807_w0_0" index="0" allow="pedestrian" speed="2.78" length="9.31" width="3.00" shape="499.09,341.00 500.53,343.63 508.70,339.21 507.29,336.56"/>
    </edge>
    <edge id=":1007094807_w1" function="walkingarea">
        <lane id=":1007094807_w1_0" index="0" allow="pedestrian" speed="2.78" length="5.91" width="3.20" shape="504.27,330.92 502.86,328.27 500.65,327.49 497.90,329.11 495.14,330.74 494.58,332.75 496.02,335.38"/>
    </edge>
    <edge id=":1007094842_0" function="internal">
        <lane id=":1007094842_0_0" index="0" allow="pedestrian delivery bicycle" speed="3.65" length="4.67" shape="594.09,338.42 593.27,339.60 592.46,339.99 591.67,339.58 590.89,338.36"/>
    </edge>
    <edge id=":1007094893_0" function="internal">
        <lane id=":1007094893_0_0" index="0" allow="pedestrian delivery bicycle" speed="5.56" length="5.97" shape="494.25,326.48 493.26,325.55 492.02,325.15 490.54,325.25 488.83,325.88"/>
    </edge>
    <edge id=":1007094893_1" function="internal">
        <lane id=":1007094893_1_0" index="0" allow="pedestrian delivery bicycle" speed="5.56" length="9.43" shape="494.25,326.48 488.96,318.68"/>
    </edge>
    <edge id=":1007094893_2" function="internal">
        <lane id=":1007094893_2_0" index="0" allow="pedestrian delivery bicycle" speed="3.65" length="4.67" shape="494.25,326.48 494.18,325.04 494.59,324.24 495.47,324.09 496.83,324.58"/>
    </edge>
    <edge id=":1007094893_3" function="internal">
        <lane id=":1007094893_3_0" index="0" allow="pedestrian delivery bicycle" speed="5.56" length="9.20" shape="491.66,316.96 496.83,324.58"/>
    </edge>
    <edge id=":1007094893_4" function="internal">
        <lane id=":1007094893_4_0" index="0" allow="pedestrian delivery bicycle" speed="5.56" length="10.98" shape="491.66,316.96 492.86,319.69 492.79,322.08 491.44,324.15 488.83,325.88"/>
    </edge>
    <edge id=":1007094893_5" function="internal">
        <lane id=":1007094893_5_0" index="0" allow="pedestrian delivery bicycle" speed="3.65" length="4.67" shape="491.66,316.96 491.63,318.40 491.17,319.17 490.28,319.26 488.96,318.68"/>
    </edge>
    <edge id=":1007094893_6" function="internal">
        <lane id=":1007094893_6_0" index="0" allow="pedestrian delivery bicycle" speed="4.94" length="5.19" shape="487.64,322.90 488.87,322.08 489.50,321.11 489.53,319.97 488.96,318.68"/>
    </edge>
    <edge id=":1007094893_7" function="internal">
        <lane id=":1007094893_7_0" index="0" allow="pedestrian delivery bicycle" speed="5.56" length="10.25" shape="487.64,322.90 490.41,321.95 492.86,321.91 495.00,322.78 496.83,324.58"/>
    </edge>
    <edge id=":1007094893_8" function="internal">
        <lane id=":1007094893_8_0" index="0" allow="pedestrian delivery bicycle" speed="3.65" length="4.68" shape="487.64,322.90 489.05,323.20 489.72,323.80 489.65,324.69 488.83,325.88"/>
    </edge>
    <edge id=":1007094893_w0" function="walkingarea">
        <lane id=":1007094893_w0_0" index="0" allow="pedestrian" speed="2.78" length="7.10" width="6.40" shape="492.97,327.43 498.11,323.62 493.01,316.10 487.61,319.53 487.89,320.29 487.86,320.62 487.70,320.92 487.43,321.18 487.04,321.41 489.42,327.37 490.96,326.82 491.60,326.76 492.15,326.85 492.60,327.07"/>
    </edge>
    <edge id=":1007094914_0" function="internal">
        <lane id=":1007094914_0_0" index="0" allow="delivery bicycle" speed="5.49" length="5.98" shape="580.58,301.27 579.48,299.69 578.33,298.76 577.11,298.48 575.83,298.84"/>
    </edge>
    <edge id=":1007094914_1" function="internal">
        <lane id=":1007094914_1_0" index="0" allow="delivery bicycle" speed="6.95" length="11.20" shape="580.58,301.27 579.32,298.21 579.23,295.58 580.30,293.40 582.54,291.65"/>
    </edge>
    <edge id=":1007094914_2" function="internal">
        <lane id=":1007094914_2_0" index="0" allow="pedestrian delivery bicycle" speed="3.65" length="4.67" shape="580.58,301.27 580.69,299.83 581.19,299.09 582.08,299.05 583.37,299.70"/>
    </edge>
    <edge id=":1007094914_3" function="internal">
        <lane id=":1007094914_3_0" index="0" allow="delivery bicycle" speed="5.42" length="6.00" shape="584.06,294.47 582.97,295.36 582.50,296.53 582.63,297.98 583.37,299.70"/>
    </edge>
    <edge id=":1007094914_4" function="internal">
        <lane id=":1007094914_4_0" index="0" disallow="pedestrian tram rail_urban rail rail_electric rail_fast ship container cable_car subway aircraft wheelchair scooter drone" speed="8.33" length="9.32" shape="584.06,294.47 575.83,298.84"/>
    </edge>
    <edge id=":1007094914_5" function="internal">
        <lane id=":1007094914_5_0" index="0" disallow="pedestrian tram rail_urban rail rail_electric rail_fast ship container cable_car subway aircraft wheelchair scooter drone" speed="8.33" length="9.27" shape="574.35,296.00 582.54,291.65"/>
    </edge>
    <edge id=":1007094914_6" function="internal">
        <lane id=":1007094914_6_0" index="0" allow="delivery bicycle" speed="6.95" length="2.95" shape="574.35,296.00 576.93,295.18 577.17,295.22"/>
    </edge>
    <edge id=":1007094914_7" function="internal">
        <lane id=":1007094914_7_0" index="0" allow="delivery bicycle" speed="6.95" length="8.06" shape="577.17,295.22 579.29,295.53 581.44,297.04 583.37,299.70"/>
    </edge>
    <edge id=":1007094914_w0" function="walkingarea">
        <lane id=":1007094914_w0_0" index="0" allow="pedestrian" speed="2.78" length="5.34" width="3.20" shape="576.57,300.26 577.95,302.92 579.18,302.05 581.97,300.49 584.76,298.92 586.25,298.51 584.82,295.87"/>
    </edge>
    <edge id=":1007094914_w1" function="walkingarea">
        <lane id=":1007094914_w1_0" index="0" allow="pedestrian" speed="2.78" length="9.22" width="3.00" shape="581.77,290.25 580.34,287.61 572.23,291.92 573.61,294.58"/>
    </edge>
    <edge id=":10075788788_0" function="internal">
        <lane id=":10075788788_0_0" index="0" allow="tram rail_urban" speed="16.67" length="0.28" shape="774.81,438.26 774.53,438.28"/>
    </edge>
    <edge id=":10075788789_0" function="internal">
        <lane id=":10075788789_0_0" index="0" allow="tram rail_urban" speed="16.67" length="0.30" shape="768.72,435.32 769.02,435.30"/>
    </edge>
    <edge id=":10075788800_w0" function="walkingarea">
        <lane id=":10075788800_w0_0" index="0" allow="pedestrian" speed="2.78" length="3.36" width="2.00" shape="770.59,434.50 772.59,434.35 772.22,429.36 770.23,429.51 770.12,430.35 769.94,430.66 769.66,430.89 769.30,431.04 768.84,431.12 768.99,433.11 769.83,433.22 770.14,433.40 770.37,433.68 770.52,434.04"/>
    </edge>
    <edge id=":10075788801_w0" function="walkingarea">
        <lane id=":10075788801_w0_0" index="0" allow="pedestrian" speed="2.78" length="4.02" width="2.00" shape="749.95,436.02 751.95,435.87 752.05,435.03 752.24,434.72 752.52,434.49 752.88,434.34 753.34,434.26 753.19,432.27 752.34,432.16 752.03,431.98 751.80,431.70 751.64,431.34 751.56,430.88 749.57,431.05"/>
    </edge>
    <edge id=":10075788802_w0" function="walkingarea">
        <lane id=":10075788802_w0_0" index="0" allow="pedestrian" speed="2.78" length="3.36" width="2.00" shape="771.30,443.97 773.29,443.81 772.92,438.83 770.92,438.98 770.82,439.82 770.63,440.13 770.35,440.36 769.99,440.51 769.53,440.59 769.68,442.58 770.53,442.68 770.83,442.87 771.06,443.15 771.22,443.51"/>
    </edge>
    <edge id=":10075788803_w0" function="walkingarea">
        <lane id=":10075788803_w0_0" index="0" allow="pedestrian" speed="2.78" length="4.02" width="2.00" shape="750.65,445.48 752.64,445.33 752.75,444.49 752.93,444.18 753.21,443.95 753.57,443.80 754.03,443.72 753.88,441.73 753.04,441.62 752.73,441.44 752.50,441.16 752.35,440.80 752.28,440.34 750.28,440.49"/>
    </edge>
    <edge id=":10075788805_w0" function="walkingarea">
        <lane id=":10075788805_w0_0" index="0" allow="pedestrian" speed="2.78" length="2.49" width="2.00" shape="771.48,446.68 773.48,446.54 773.11,441.54 771.12,441.69 771.02,442.53 770.83,442.84 770.56,443.07 770.19,443.22 769.74,443.30 769.89,445.29"/>
    </edge>
    <edge id=":10075788806_w0" function="walkingarea">
        <lane id=":10075788806_w0_0" index="0" allow="pedestrian" speed="2.78" length="3.14" width="2.00" shape="771.62,448.42 773.62,448.27 773.26,443.30 771.26,443.44 769.87,445.04 770.01,447.03 770.86,447.14 771.16,447.33 771.39,447.60 771.55,447.97"/>
    </edge>
    <edge id=":10075788807_w0" function="walkingarea">
        <lane id=":10075788807_w0_0" index="0" allow="pedestrian" speed="2.78" length="2.48" width="2.00" shape="770.40,431.79 772.39,431.64 772.02,426.65 770.02,426.80 768.64,428.41 768.79,430.41 769.63,430.51 769.94,430.69 770.17,430.97 770.32,431.33"/>
    </edge>
    <edge id=":10075788808_w0" function="walkingarea">
        <lane id=":10075788808_w0_0" index="0" allow="pedestrian" speed="2.78" length="2.61" width="2.00" shape="770.27,430.08 772.27,429.93 771.89,424.94 769.90,425.09 769.79,425.94 769.61,426.24 769.33,426.47 768.97,426.62 768.51,426.70 768.66,428.69"/>
    </edge>
    <edge id=":10075788809_w0" function="walkingarea">
        <lane id=":10075788809_w0_0" index="0" allow="pedestrian" speed="2.78" length="2.56" width="2.00" shape="770.03,426.84 772.02,426.69 771.65,421.71 769.66,421.86 768.27,423.46 768.41,425.45 769.26,425.56 769.57,425.75 769.80,426.02 769.95,426.39"/>
    </edge>
    <edge id=":10075788810_w0" function="walkingarea">
        <lane id=":10075788810_w0_0" index="0" allow="pedestrian" speed="2.78" length="2.88" width="2.00" shape="769.92,425.35 771.91,425.20 771.55,420.22 768.40,421.69 768.16,421.97 768.31,423.96"/>
    </edge>
    <edge id=":10075788812_w0" function="walkingarea">
        <lane id=":10075788812_w0_0" index="0" allow="pedestrian" speed="2.78" length="0.30" width="2.00" shape="771.65,448.81 773.65,448.67 773.63,448.36 771.63,448.52"/>
    </edge>
    <edge id=":10075801132_w0" function="walkingarea">
        <lane id=":10075801132_w0_0" index="0" allow="pedestrian" speed="2.78" length="3.00" width="2.00" shape="768.25,421.71 768.10,419.71 765.11,419.93 765.26,421.93"/>
    </edge>
    <edge id=":10075801133_w0" function="walkingarea">
        <lane id=":10075801133_w0_0" index="0" allow="pedestrian" speed="2.78" length="0.30" width="2.00" shape="767.08,424.06 766.93,422.06 766.64,422.08 766.78,424.08"/>
    </edge>
    <edge id=":10075801134_w0" function="walkingarea">
        <lane id=":10075801134_w0_0" index="0" allow="pedestrian" speed="2.78" length="0.30" width="2.00" shape="767.19,425.54 767.05,423.54 766.74,423.56 766.90,425.56"/>
    </edge>
    <edge id=":10075801137_w0" function="walkingarea">
        <lane id=":10075801137_w0_0" index="0" allow="pedestrian" speed="2.78" length="0.30" width="2.00" shape="768.84,447.12 768.70,445.12 768.40,445.14 768.55,447.14"/>
    </edge>
    <edge id=":10075801138_w0" function="walkingarea">
        <lane id=":10075801138_w0_0" index="0" allow="pedestrian" speed="2.78" length="0.30" width="2.00" shape="768.70,445.38 768.56,443.38 768.26,443.40 768.41,445.40"/>
    </edge>
    <edge id=":10075801139_w0" function="walkingarea">
        <lane id=":10075801139_w0_0" index="0" allow="pedestrian" speed="2.78" length="0.30" width="2.00" shape="767.45,428.79 767.30,426.79 767.00,426.81 767.16,428.81"/>
    </edge>
    <edge id=":10075801141_w0" function="walkingarea">
        <lane id=":10075801141_w0_0" index="0" allow="pedestrian" speed="2.78" length="0.30" width="2.00" shape="767.58,430.50 767.43,428.50 767.13,428.52 767.29,430.52"/>
    </edge>
    <edge id=":10075801154_w0" function="walkingarea">
        <lane id=":10075801154_w0_0" index="0" allow="pedestrian" speed="2.78" length="0.30" width="2.00" shape="749.27,448.01 749.13,446.01 748.82,446.03 748.98,448.03"/>
    </edge>
    <edge id=":10075801155_w0" function="walkingarea">
        <lane id=":10075801155_w0_0" index="0" allow="pedestrian" speed="2.78" length="3.00" width="2.00" shape="749.25,430.85 749.10,428.86 746.11,429.09 746.26,431.08"/>