<!-- sumo_config.sumocfg -->
<configuration>
  <input>
    <net-file value="network2.net.xml"/>
    <route-files value="network2.rou.xml"/>
  </input>
  <time>
    <begin value="0"/>
    <end value="3600"/>
  </time>
</configuration>
