<?xml version="1.0" encoding="UTF-8"?>
<routes>
<flow id="flow_1" type="car" begin="0" end="3600" number="600" from="-1003269855#0" to="98331811"/>
<flow id="flow_2" type="car" begin="0" end="3600" number="600" from="-1003269855#2" to="86548565#1"/>
<flow id="flow_3" type="car" begin="0" end="3600" number="600" from="-1025860967#0" to="86548565#0"/>
<flow id="flow_4" type="car" begin="0" end="3600" number="600" from="-1025860967#1" to="863412061"/>
<flow id="flow_5" type="car" begin="0" end="3600" number="600" from="-1133544956" to="755621065"/>
<flow id="flow_6" type="car" begin="0" end="3600" number="600" from="-1133544957" to="56057361#0"/>
<flow id="flow_7" type="car" begin="0" end="3600" number="600" from="-1157505351" to="560562743"/>
<flow id="flow_8" type="car" begin="0" end="3600" number="600" from="-1157505352" to="560562742"/>
<flow id="flow_9" type="car" begin="0" end="3600" number="600" from="-1157505357" to="539890287"/>
<flow id="flow_10" type="car" begin="0" end="3600" number="600" from="-1157505358#0" to="534092873"/>
<flow id="flow_11" type="car" begin="0" end="3600" number="600" from="-1157505358#1" to="523772484"/>
<flow id="flow_12" type="car" begin="0" end="3600" number="600" from="-1157505360" to="523772481"/>
<flow id="flow_13" type="car" begin="0" end="3600" number="600" from="-1157505362" to="519956418#1"/>
<flow id="flow_14" type="car" begin="0" end="3600" number="600" from="-1157505367" to="519956415#1"/>
<flow id="flow_15" type="car" begin="0" end="3600" number="600" from="-1248871134" to="503190615#1"/>
<flow id="flow_16" type="car" begin="0" end="3600" number="600" from="-1248871137" to="503190615#0"/>
<flow id="flow_17" type="car" begin="0" end="3600" number="600" from="-1307793411#1" to="428036775#2"/>
<flow id="flow_18" type="car" begin="0" end="3600" number="600" from="-137962150#2" to="428036775#0"/>
<flow id="flow_19" type="car" begin="0" end="3600" number="600" from="-149399201" to="428036774#0"/>
<flow id="flow_20" type="car" begin="0" end="3600" number="600" from="-149723891" to="428036773"/>
<flow id="flow_21" type="car" begin="0" end="3600" number="600" from="-149723892#0" to="428036770#2"/>
<flow id="flow_22" type="car" begin="0" end="3600" number="600" from="-149723892#1" to="428036770#1"/>
<flow id="flow_23" type="car" begin="0" end="3600" number="600" from="-149723892#2" to="428036770#0"/>
<flow id="flow_24" type="car" begin="0" end="3600" number="600" from="-158008428#1" to="428021297#1"/>
<flow id="flow_25" type="car" begin="0" end="3600" number="600" from="-159234717#0" to="428021297#0"/>
<flow id="flow_26" type="car" begin="0" end="3600" number="600" from="-159234717#1" to="428021296#0"/>
<flow id="flow_27" type="car" begin="0" end="3600" number="600" from="-159234717#2" to="422738802#4"/>
<flow id="flow_28" type="car" begin="0" end="3600" number="600" from="-159700888#2" to="422738802#2"/>
<flow id="flow_29" type="car" begin="0" end="3600" number="600" from="-160611606" to="422738802#1"/>
<flow id="flow_30" type="car" begin="0" end="3600" number="600" from="-167081393#0" to="422738802#0"/>
<flow id="flow_31" type="car" begin="0" end="3600" number="600" from="-171249987#2" to="422738801#3"/>
<flow id="flow_32" type="car" begin="0" end="3600" number="600" from="-171249987#3" to="422738801#2"/>
<flow id="flow_33" type="car" begin="0" end="3600" number="600" from="-171249987#4" to="422738801#1"/>
<flow id="flow_34" type="car" begin="0" end="3600" number="600" from="-181581824#1" to="422738801#0"/>
<flow id="flow_35" type="car" begin="0" end="3600" number="600" from="-184170266#0" to="422738800#1"/>
<flow id="flow_36" type="car" begin="0" end="3600" number="600" from="-261420059#0" to="4059064#2"/>
<flow id="flow_37" type="car" begin="0" end="3600" number="600" from="-261420059#1" to="4059064#1"/>
<flow id="flow_38" type="car" begin="0" end="3600" number="600" from="-261420059#2" to="4059064#0"/>
<flow id="flow_39" type="car" begin="0" end="3600" number="600" from="-261423862#0" to="4059055#0"/>
<flow id="flow_40" type="car" begin="0" end="3600" number="600" from="-261423862#2" to="384971140#4"/>
<flow id="flow_41" type="car" begin="0" end="3600" number="600" from="-261423863#0" to="384971140#3"/>
<flow id="flow_42" type="car" begin="0" end="3600" number="600" from="-261423863#1" to="384971140#1"/>
<flow id="flow_43" type="car" begin="0" end="3600" number="600" from="-261423864#0" to="384971140#0"/>
<flow id="flow_44" type="car" begin="0" end="3600" number="600" from="-261423864#1" to="384971139"/>
<flow id="flow_45" type="car" begin="0" end="3600" number="600" from="-261423865#0" to="36966884"/>
<flow id="flow_46" type="car" begin="0" end="3600" number="600" from="-261741010#1" to="36966883"/>
<flow id="flow_47" type="car" begin="0" end="3600" number="600" from="-261741010#2" to="36894772#3"/>
<flow id="flow_48" type="car" begin="0" end="3600" number="600" from="-261741010#3" to="36894772#2"/>
<flow id="flow_49" type="car" begin="0" end="3600" number="600" from="-261741010#4" to="36894772#0"/>
<flow id="flow_50" type="car" begin="0" end="3600" number="600" from="-261741010#6" to="3527802#1"/>
<flow id="flow_51" type="car" begin="0" end="3600" number="600" from="-261750863#0" to="3454369#0"/>
<flow id="flow_52" type="car" begin="0" end="3600" number="600" from="-261750866" to="3454245#5"/>
<flow id="flow_53" type="car" begin="0" end="3600" number="600" from="-310639256" to="3454245#4"/>
<flow id="flow_54" type="car" begin="0" end="3600" number="600" from="-310639257#0" to="3454245#3"/>
<flow id="flow_55" type="car" begin="0" end="3600" number="600" from="-310639257#1" to="3454245#2"/>
<flow id="flow_56" type="car" begin="0" end="3600" number="600" from="-342317279" to="3454245#1"/>
<flow id="flow_57" type="car" begin="0" end="3600" number="600" from="-343772629#0" to="3454180#2"/>
<flow id="flow_58" type="car" begin="0" end="3600" number="600" from="-343772629#1" to="3454180#1"/>
<flow id="flow_59" type="car" begin="0" end="3600" number="600" from="-3454180#0" to="3454180#0"/>
<flow id="flow_60" type="car" begin="0" end="3600" number="600" from="-3454180#1" to="343772629#1"/>
<flow id="flow_61" type="car" begin="0" end="3600" number="600" from="-3454180#2" to="343772629#0"/>
<flow id="flow_62" type="car" begin="0" end="3600" number="600" from="-3454245#1" to="342317279"/>
<flow id="flow_63" type="car" begin="0" end="3600" number="600" from="-3454245#2" to="317552926"/>
<flow id="flow_64" type="car" begin="0" end="3600" number="600" from="-3454245#3" to="310639257#1"/>
<flow id="flow_65" type="car" begin="0" end="3600" number="600" from="-3454245#4" to="310639257#0"/>
<flow id="flow_66" type="car" begin="0" end="3600" number="600" from="-3454245#5" to="310639256"/>
<flow id="flow_67" type="car" begin="0" end="3600" number="600" from="-36894772#1" to="266635494"/>
<flow id="flow_68" type="car" begin="0" end="3600" number="600" from="-36894772#2" to="261750867"/>
<flow id="flow_69" type="car" begin="0" end="3600" number="600" from="-36894772#3" to="261750866"/>
<flow id="flow_70" type="car" begin="0" end="3600" number="600" from="-36966883" to="261750863#0"/>
<flow id="flow_71" type="car" begin="0" end="3600" number="600" from="-36966884" to="261743231"/>
<flow id="flow_72" type="car" begin="0" end="3600" number="600" from="-384971139" to="261741011#1"/>
<flow id="flow_73" type="car" begin="0" end="3600" number="600" from="-384971140#0" to="261741011#0"/>
<flow id="flow_74" type="car" begin="0" end="3600" number="600" from="-384971140#1" to="261741010#5"/>
<flow id="flow_75" type="car" begin="0" end="3600" number="600" from="-384971140#3" to="261741010#4"/>
<flow id="flow_76" type="car" begin="0" end="3600" number="600" from="-384971140#4" to="261741010#3"/>
<flow id="flow_77" type="car" begin="0" end="3600" number="600" from="-4059055#2" to="261741010#2"/>
<flow id="flow_78" type="car" begin="0" end="3600" number="600" from="-422738800#0" to="261741010#0"/>
<flow id="flow_79" type="car" begin="0" end="3600" number="600" from="-422738800#1" to="261423864#1"/>
<flow id="flow_80" type="car" begin="0" end="3600" number="600" from="-428036770#0" to="261423864#0"/>
<flow id="flow_81" type="car" begin="0" end="3600" number="600" from="-428036770#1" to="261423863#1"/>
<flow id="flow_82" type="car" begin="0" end="3600" number="600" from="-428036770#2" to="261423863#0"/>
<flow id="flow_83" type="car" begin="0" end="3600" number="600" from="-428036773" to="261423862#2"/>
<flow id="flow_84" type="car" begin="0" end="3600" number="600" from="-428036774#1" to="261423862#0"/>
<flow id="flow_85" type="car" begin="0" end="3600" number="600" from="-428036775#0" to="261420059#2"/>
<flow id="flow_86" type="car" begin="0" end="3600" number="600" from="-428036775#2" to="261420059#1"/>
<flow id="flow_87" type="car" begin="0" end="3600" number="600" from="-503190615#0" to="261420059#0"/>
<flow id="flow_88" type="car" begin="0" end="3600" number="600" from="-503190615#2" to="230765089#1"/>
<flow id="flow_89" type="car" begin="0" end="3600" number="600" from="-519956415#1" to="184170266#1"/>
<flow id="flow_90" type="car" begin="0" end="3600" number="600" from="-519956418#0" to="184170266#0"/>
<flow id="flow_91" type="car" begin="0" end="3600" number="600" from="-519956418#1" to="181581823"/>
<flow id="flow_92" type="car" begin="0" end="3600" number="600" from="-534092873" to="171947874#1"/>
<flow id="flow_93" type="car" begin="0" end="3600" number="600" from="-560562743" to="171942531"/>
<flow id="flow_94" type="car" begin="0" end="3600" number="600" from="-56057361#1" to="171249987#4"/>
<flow id="flow_95" type="car" begin="0" end="3600" number="600" from="-863412061" to="171249987#3"/>
<flow id="flow_96" type="car" begin="0" end="3600" number="600" from="-98331811" to="171249987#1"/>
<flow id="flow_97" type="car" begin="0" end="3600" number="600" from="1003269855#0" to="167081393#0"/>
<flow id="flow_98" type="car" begin="0" end="3600" number="600" from="1003269855#2" to="160803847"/>
<flow id="flow_99" type="car" begin="0" end="3600" number="600" from="1025860967#0" to="160803845#0"/>
<flow id="flow_100" type="car" begin="0" end="3600" number="600" from="1025860967#1" to="160803841"/>
<flow id="flow_101" type="car" begin="0" end="3600" number="600" from="1133544956" to="160803840"/>
<flow id="flow_102" type="car" begin="0" end="3600" number="600" from="1133544957" to="160803838#0"/>
<flow id="flow_103" type="car" begin="0" end="3600" number="600" from="1157505351" to="160611606"/>
<flow id="flow_104" type="car" begin="0" end="3600" number="600" from="1157505352" to="159700888#1"/>
<flow id="flow_105" type="car" begin="0" end="3600" number="600" from="1157505353" to="159234717#2"/>
<flow id="flow_106" type="car" begin="0" end="3600" number="600" from="1157505355" to="159234717#1"/>
<flow id="flow_107" type="car" begin="0" end="3600" number="600" from="1157505356" to="159234717#0"/>
<flow id="flow_108" type="car" begin="0" end="3600" number="600" from="1157505358#1" to="158008428#1"/>
<flow id="flow_109" type="car" begin="0" end="3600" number="600" from="1157505360" to="149723896#0"/>
<flow id="flow_110" type="car" begin="0" end="3600" number="600" from="1157505362" to="149723892#2"/>
<flow id="flow_111" type="car" begin="0" end="3600" number="600" from="1157505365" to="149723892#1"/>
<flow id="flow_112" type="car" begin="0" end="3600" number="600" from="1157505367" to="149723891"/>
<flow id="flow_113" type="car" begin="0" end="3600" number="600" from="1248871137" to="149399210#1"/>
<flow id="flow_114" type="car" begin="0" end="3600" number="600" from="1306866780" to="149399209#0"/>
<flow id="flow_115" type="car" begin="0" end="3600" number="600" from="1307793411#0" to="149399206#1"/>
<flow id="flow_116" type="car" begin="0" end="3600" number="600" from="1335949463" to="149399206#0"/>
<flow id="flow_117" type="car" begin="0" end="3600" number="600" from="137962150#0" to="149399201"/>
<flow id="flow_118" type="car" begin="0" end="3600" number="600" from="149399184" to="149399190"/>
<flow id="flow_119" type="car" begin="0" end="3600" number="600" from="149399187#0" to="149399187#0"/>
<flow id="flow_120" type="car" begin="0" end="3600" number="600" from="149399190" to="149399184"/>
<flow id="flow_121" type="car" begin="0" end="3600" number="600" from="149399201" to="137962150#0"/>
<flow id="flow_122" type="car" begin="0" end="3600" number="600" from="149399206#0" to="1335949463"/>
<flow id="flow_123" type="car" begin="0" end="3600" number="600" from="149399206#1" to="1307793411#0"/>
<flow id="flow_124" type="car" begin="0" end="3600" number="600" from="149399209#0" to="1306866780"/>
<flow id="flow_125" type="car" begin="0" end="3600" number="600" from="149399210#1" to="1248871137"/>
<flow id="flow_126" type="car" begin="0" end="3600" number="600" from="149723891" to="1157505367"/>
<flow id="flow_127" type="car" begin="0" end="3600" number="600" from="149723892#1" to="1157505365"/>
<flow id="flow_128" type="car" begin="0" end="3600" number="600" from="149723892#2" to="1157505362"/>
<flow id="flow_129" type="car" begin="0" end="3600" number="600" from="149723896#0" to="1157505360"/>
<flow id="flow_130" type="car" begin="0" end="3600" number="600" from="158008428#1" to="1157505358#1"/>
<flow id="flow_131" type="car" begin="0" end="3600" number="600" from="159234717#0" to="1157505356"/>
<flow id="flow_132" type="car" begin="0" end="3600" number="600" from="159234717#1" to="1157505355"/>
<flow id="flow_133" type="car" begin="0" end="3600" number="600" from="159234717#2" to="1157505353"/>
<flow id="flow_134" type="car" begin="0" end="3600" number="600" from="159700888#1" to="1157505352"/>
<flow id="flow_135" type="car" begin="0" end="3600" number="600" from="160611606" to="1157505351"/>
<flow id="flow_136" type="car" begin="0" end="3600" number="600" from="160803838#0" to="1133544957"/>
<flow id="flow_137" type="car" begin="0" end="3600" number="600" from="160803840" to="1133544956"/>
<flow id="flow_138" type="car" begin="0" end="3600" number="600" from="160803841" to="1025860967#1"/>
<flow id="flow_139" type="car" begin="0" end="3600" number="600" from="160803845#0" to="1025860967#0"/>
<flow id="flow_140" type="car" begin="0" end="3600" number="600" from="160803847" to="1003269855#2"/>
<flow id="flow_141" type="car" begin="0" end="3600" number="600" from="167081393#0" to="1003269855#0"/>
<flow id="flow_142" type="car" begin="0" end="3600" number="600" from="171249987#1" to="-98331811"/>
<flow id="flow_143" type="car" begin="0" end="3600" number="600" from="171249987#3" to="-863412061"/>
<flow id="flow_144" type="car" begin="0" end="3600" number="600" from="171249987#4" to="-56057361#1"/>
<flow id="flow_145" type="car" begin="0" end="3600" number="600" from="171942531" to="-560562743"/>
<flow id="flow_146" type="car" begin="0" end="3600" number="600" from="171947874#1" to="-534092873"/>
<flow id="flow_147" type="car" begin="0" end="3600" number="600" from="181581823" to="-519956418#1"/>
<flow id="flow_148" type="car" begin="0" end="3600" number="600" from="184170266#0" to="-519956418#0"/>
<flow id="flow_149" type="car" begin="0" end="3600" number="600" from="184170266#1" to="-519956415#1"/>
<flow id="flow_150" type="car" begin="0" end="3600" number="600" from="230765089#1" to="-503190615#2"/>
<flow id="flow_151" type="car" begin="0" end="3600" number="600" from="261420059#0" to="-503190615#0"/>
<flow id="flow_152" type="car" begin="0" end="3600" number="600" from="261420059#1" to="-428036775#2"/>
<flow id="flow_153" type="car" begin="0" end="3600" number="600" from="261420059#2" to="-428036775#0"/>
<flow id="flow_154" type="car" begin="0" end="3600" number="600" from="261423862#0" to="-428036774#1"/>
<flow id="flow_155" type="car" begin="0" end="3600" number="600" from="261423862#2" to="-428036773"/>
<flow id="flow_156" type="car" begin="0" end="3600" number="600" from="261423863#0" to="-428036770#2"/>
<flow id="flow_157" type="car" begin="0" end="3600" number="600" from="261423863#1" to="-428036770#1"/>
<flow id="flow_158" type="car" begin="0" end="3600" number="600" from="261423864#0" to="-428036770#0"/>
<flow id="flow_159" type="car" begin="0" end="3600" number="600" from="261423864#1" to="-422738800#1"/>
<flow id="flow_160" type="car" begin="0" end="3600" number="600" from="261741010#0" to="-422738800#0"/>
<flow id="flow_161" type="car" begin="0" end="3600" number="600" from="261741010#2" to="-4059055#2"/>
<flow id="flow_162" type="car" begin="0" end="3600" number="600" from="261741010#3" to="-384971140#4"/>
<flow id="flow_163" type="car" begin="0" end="3600" number="600" from="261741010#4" to="-384971140#3"/>
<flow id="flow_164" type="car" begin="0" end="3600" number="600" from="261741010#5" to="-384971140#1"/>
<flow id="flow_165" type="car" begin="0" end="3600" number="600" from="261741011#0" to="-384971140#0"/>
<flow id="flow_166" type="car" begin="0" end="3600" number="600" from="261741011#1" to="-384971139"/>
<flow id="flow_167" type="car" begin="0" end="3600" number="600" from="261743231" to="-36966884"/>
<flow id="flow_168" type="car" begin="0" end="3600" number="600" from="261750863#0" to="-36966883"/>
<flow id="flow_169" type="car" begin="0" end="3600" number="600" from="261750866" to="-36894772#3"/>
<flow id="flow_170" type="car" begin="0" end="3600" number="600" from="261750867" to="-36894772#2"/>
<flow id="flow_171" type="car" begin="0" end="3600" number="600" from="266635494" to="-36894772#1"/>
<flow id="flow_172" type="car" begin="0" end="3600" number="600" from="310639256" to="-3454245#5"/>
<flow id="flow_173" type="car" begin="0" end="3600" number="600" from="310639257#0" to="-3454245#4"/>
<flow id="flow_174" type="car" begin="0" end="3600" number="600" from="310639257#1" to="-3454245#3"/>
<flow id="flow_175" type="car" begin="0" end="3600" number="600" from="317552926" to="-3454245#2"/>
<flow id="flow_176" type="car" begin="0" end="3600" number="600" from="342317279" to="-3454245#1"/>
<flow id="flow_177" type="car" begin="0" end="3600" number="600" from="343772629#0" to="-3454180#2"/>
<flow id="flow_178" type="car" begin="0" end="3600" number="600" from="343772629#1" to="-3454180#1"/>
<flow id="flow_179" type="car" begin="0" end="3600" number="600" from="3454180#0" to="-3454180#0"/>
<flow id="flow_180" type="car" begin="0" end="3600" number="600" from="3454180#1" to="-343772629#1"/>
<flow id="flow_181" type="car" begin="0" end="3600" number="600" from="3454180#2" to="-343772629#0"/>
<flow id="flow_182" type="car" begin="0" end="3600" number="600" from="3454245#1" to="-342317279"/>
<flow id="flow_183" type="car" begin="0" end="3600" number="600" from="3454245#2" to="-310639257#1"/>
<flow id="flow_184" type="car" begin="0" end="3600" number="600" from="3454245#3" to="-310639257#0"/>
<flow id="flow_185" type="car" begin="0" end="3600" number="600" from="3454245#4" to="-310639256"/>
<flow id="flow_186" type="car" begin="0" end="3600" number="600" from="3454245#5" to="-261750866"/>
<flow id="flow_187" type="car" begin="0" end="3600" number="600" from="3454369#0" to="-261750863#0"/>
<flow id="flow_188" type="car" begin="0" end="3600" number="600" from="3527802#1" to="-261741010#6"/>
<flow id="flow_189" type="car" begin="0" end="3600" number="600" from="36894772#0" to="-261741010#4"/>
<flow id="flow_190" type="car" begin="0" end="3600" number="600" from="36894772#2" to="-261741010#3"/>
<flow id="flow_191" type="car" begin="0" end="3600" number="600" from="36894772#3" to="-261741010#2"/>
<flow id="flow_192" type="car" begin="0" end="3600" number="600" from="36966883" to="-261741010#1"/>
<flow id="flow_193" type="car" begin="0" end="3600" number="600" from="36966884" to="-261423865#0"/>
<flow id="flow_194" type="car" begin="0" end="3600" number="600" from="384971139" to="-261423864#1"/>
<flow id="flow_195" type="car" begin="0" end="3600" number="600" from="384971140#0" to="-261423864#0"/>
<flow id="flow_196" type="car" begin="0" end="3600" number="600" from="384971140#1" to="-261423863#1"/>
<flow id="flow_197" type="car" begin="0" end="3600" number="600" from="384971140#3" to="-261423863#0"/>
<flow id="flow_198" type="car" begin="0" end="3600" number="600" from="384971140#4" to="-261423862#2"/>
<flow id="flow_199" type="car" begin="0" end="3600" number="600" from="4059055#0" to="-261423862#0"/>
<flow id="flow_200" type="car" begin="0" end="3600" number="600" from="4059064#0" to="-261420059#2"/>
<flow id="flow_201" type="car" begin="0" end="3600" number="600" from="4059064#1" to="-261420059#1"/>
<flow id="flow_202" type="car" begin="0" end="3600" number="600" from="4059064#2" to="-261420059#0"/>
<flow id="flow_203" type="car" begin="0" end="3600" number="600" from="422738800#1" to="-184170266#0"/>
<flow id="flow_204" type="car" begin="0" end="3600" number="600" from="422738801#0" to="-181581824#1"/>
<flow id="flow_205" type="car" begin="0" end="3600" number="600" from="422738801#1" to="-171249987#4"/>
<flow id="flow_206" type="car" begin="0" end="3600" number="600" from="422738801#2" to="-171249987#3"/>
<flow id="flow_207" type="car" begin="0" end="3600" number="600" from="422738801#3" to="-171249987#2"/>
<flow id="flow_208" type="car" begin="0" end="3600" number="600" from="422738802#0" to="-167081393#0"/>
<flow id="flow_209" type="car" begin="0" end="3600" number="600" from="422738802#1" to="-160611606"/>
<flow id="flow_210" type="car" begin="0" end="3600" number="600" from="422738802#2" to="-159700888#2"/>
<flow id="flow_211" type="car" begin="0" end="3600" number="600" from="422738802#4" to="-159234717#2"/>
<flow id="flow_212" type="car" begin="0" end="3600" number="600" from="428021296#0" to="-159234717#1"/>
<flow id="flow_213" type="car" begin="0" end="3600" number="600" from="428021297#0" to="-159234717#0"/>
<flow id="flow_214" type="car" begin="0" end="3600" number="600" from="428021297#1" to="-158008428#1"/>
<flow id="flow_215" type="car" begin="0" end="3600" number="600" from="428036770#0" to="-149723892#2"/>
<flow id="flow_216" type="car" begin="0" end="3600" number="600" from="428036770#1" to="-149723892#1"/>
<flow id="flow_217" type="car" begin="0" end="3600" number="600" from="428036770#2" to="-149723892#0"/>
<flow id="flow_218" type="car" begin="0" end="3600" number="600" from="428036773" to="-149723891"/>
<flow id="flow_219" type="car" begin="0" end="3600" number="600" from="428036774#0" to="-149399201"/>
<flow id="flow_220" type="car" begin="0" end="3600" number="600" from="428036775#0" to="-137962150#2"/>
<flow id="flow_221" type="car" begin="0" end="3600" number="600" from="428036775#2" to="-1307793411#1"/>
<flow id="flow_222" type="car" begin="0" end="3600" number="600" from="503190615#0" to="-1248871137"/>
<flow id="flow_223" type="car" begin="0" end="3600" number="600" from="503190615#1" to="-1248871134"/>
<flow id="flow_224" type="car" begin="0" end="3600" number="600" from="519956415#1" to="-1157505367"/>
<flow id="flow_225" type="car" begin="0" end="3600" number="600" from="519956418#1" to="-1157505362"/>
<flow id="flow_226" type="car" begin="0" end="3600" number="600" from="523772481" to="-1157505360"/>
<flow id="flow_227" type="car" begin="0" end="3600" number="600" from="523772484" to="-1157505358#1"/>
<flow id="flow_228" type="car" begin="0" end="3600" number="600" from="534092873" to="-1157505358#0"/>
<flow id="flow_229" type="car" begin="0" end="3600" number="600" from="539890287" to="-1157505357"/>
<flow id="flow_230" type="car" begin="0" end="3600" number="600" from="560562742" to="-1157505352"/>
<flow id="flow_231" type="car" begin="0" end="3600" number="600" from="560562743" to="-1157505351"/>
<flow id="flow_232" type="car" begin="0" end="3600" number="600" from="56057361#0" to="-1133544957"/>
<flow id="flow_233" type="car" begin="0" end="3600" number="600" from="755621065" to="-1133544956"/>
<flow id="flow_234" type="car" begin="0" end="3600" number="600" from="863412061" to="-1025860967#1"/>
<flow id="flow_235" type="car" begin="0" end="3600" number="600" from="86548565#0" to="-1025860967#0"/>
<flow id="flow_236" type="car" begin="0" end="3600" number="600" from="86548565#1" to="-1003269855#2"/>
<flow id="flow_237" type="car" begin="0" end="3600" number="600" from="98331811" to="-1003269855#0"/>
</routes>