<configuration>
    <input>
        <net-file value="synthetic.net.xml"/>
        <route-files value="synthetic.rou.xml"/>
    </input>

    <time>
        <begin value="0"/>
        <end value="3000"/>
    </time>

    <report>
        <verbose value="true"/>
        <no-step-log value="false"/>
    </report>
</configuration>
