<?xml version="1.0" encoding="UTF-8"?>

<!-- generated on 2025-08-04 21:38:13.532847 by randomTrips.py v1_24_0+0000-b72eb3fabc8
<configuration>
    <net-file value="synthetic.net.xml"/>
    <output-trip-file value="synthetic.trips.xml"/>
    <trip-attributes value="departLane=&quot;best&quot; departSpeed=&quot;max&quot; departPos=&quot;random&quot;"/>
    <fringe-factor value="5.0"/>
    <seed value="123"/>
    <end value="950.0"/>
    <period value="2.5"/>
</configuration>
-->

<routes xmlns:xsi="http://www.w3.org/2001/XMLSchema-instance" xsi:noNamespaceSchemaLocation="http://sumo.dlr.de/xsd/routes_file.xsd">
    <trip id="0" depart="0.00" from="-1143" to="-1643" departLane="best" departSpeed="max" departPos="random"/>
    <trip id="1" depart="2.50" from="-3426" to="-1775" departLane="best" departSpeed="max" departPos="random"/>
    <trip id="2" depart="5.00" from="459" to="-1160" departLane="best" departSpeed="max" departPos="random"/>
    <trip id="3" depart="7.50" from="-597" to="-599" departLane="best" departSpeed="max" departPos="random"/>
    <trip id="4" depart="10.00" from="3073" to="-2144" departLane="best" departSpeed="max" departPos="random"/>
    <trip id="5" depart="12.50" from="-3187" to="-601" departLane="best" departSpeed="max" departPos="random"/>
    <trip id="6" depart="15.00" from="-2365" to="-1001" departLane="best" departSpeed="max" departPos="random"/>
    <trip id="7" depart="17.50" from="-3448" to="-1643" departLane="best" departSpeed="max" departPos="random"/>
    <trip id="8" depart="20.00" from="-883" to="-1610" departLane="best" departSpeed="max" departPos="random"/>
    <trip id="9" depart="22.50" from="-2968" to="1143" departLane="best" departSpeed="max" departPos="random"/>
    <trip id="10" depart="25.00" from="463" to="-17" departLane="best" departSpeed="max" departPos="random"/>
    <trip id="11" depart="27.50" from="-177" to="3312" departLane="best" departSpeed="max" departPos="random"/>
    <trip id="12" depart="30.00" from="-1135" to="5" departLane="best" departSpeed="max" departPos="random"/>
    <trip id="13" depart="32.50" from="-742" to="-33" departLane="best" departSpeed="max" departPos="random"/>
    <trip id="14" depart="35.00" from="2846" to="3304" departLane="best" departSpeed="max" departPos="random"/>
    <trip id="15" depart="37.50" from="-3189" to="3426" departLane="best" departSpeed="max" departPos="random"/>
    <trip id="16" depart="40.00" from="-2131" to="2140" departLane="best" departSpeed="max" departPos="random"/>
    <trip id="17" depart="42.50" from="-589" to="343" departLane="best" departSpeed="max" departPos="random"/>
    <trip id="18" depart="45.00" from="-2968" to="1001" departLane="best" departSpeed="max" departPos="random"/>
    <trip id="19" depart="47.50" from="218" to="1621" departLane="best" departSpeed="max" departPos="random"/>
    <trip id="20" depart="50.00" from="1632" to="2363" departLane="best" departSpeed="max" departPos="random"/>
    <trip id="21" depart="52.50" from="1504" to="45" departLane="best" departSpeed="max" departPos="random"/>
    <trip id="22" depart="55.00" from="-3461" to="2503" departLane="best" departSpeed="max" departPos="random"/>
    <trip id="23" depart="57.50" from="-3304" to="-1146" departLane="best" departSpeed="max" departPos="random"/>
    <trip id="24" depart="60.00" from="2131" to="-2255" departLane="best" departSpeed="max" departPos="random"/>
    <trip id="25" depart="62.50" from="28" to="572" departLane="best" departSpeed="max" departPos="random"/>
    <trip id="26" depart="65.00" from="1386" to="-224" departLane="best" departSpeed="max" departPos="random"/>
    <trip id="27" depart="67.50" from="-3187" to="-893" departLane="best" departSpeed="max" departPos="random"/>
    <trip id="28" depart="70.00" from="-1175" to="1146" departLane="best" departSpeed="max" departPos="random"/>
    <trip id="29" depart="72.50" from="-740" to="-602" departLane="best" departSpeed="max" departPos="random"/>
    <trip id="30" depart="75.00" from="-2017" to="-1643" departLane="best" departSpeed="max" departPos="random"/>
    <trip id="31" depart="77.50" from="1143" to="-11" departLane="best" departSpeed="max" departPos="random"/>
    <trip id="32" depart="80.00" from="-3197" to="-2832" departLane="best" departSpeed="max" departPos="random"/>
    <trip id="33" depart="82.50" from="-595" to="3072" departLane="best" departSpeed="max" departPos="random"/>
    <trip id="34" depart="85.00" from="5" to="2363" departLane="best" departSpeed="max" departPos="random"/>
    <trip id="35" depart="87.50" from="883" to="739" departLane="best" departSpeed="max" departPos="random"/>
    <trip id="36" depart="90.00" from="1144" to="-2846" departLane="best" departSpeed="max" departPos="random"/>
    <trip id="37" depart="92.50" from="-3461" to="-2254" departLane="best" departSpeed="max" departPos="random"/>
    <trip id="38" depart="95.00" from="883" to="1139" departLane="best" departSpeed="max" departPos="random"/>
    <trip id="39" depart="97.50" from="2130" to="-1169" departLane="best" departSpeed="max" departPos="random"/>
    <trip id="40" depart="100.00" from="-17" to="-2367" departLane="best" departSpeed="max" departPos="random"/>
    <trip id="41" depart="102.50" from="-2479" to="-721" departLane="best" departSpeed="max" departPos="random"/>
    <trip id="42" depart="105.00" from="-2503" to="1137" departLane="best" departSpeed="max" departPos="random"/>
    <trip id="43" depart="107.50" from="-3438" to="-178" departLane="best" departSpeed="max" departPos="random"/>
    <trip id="44" depart="110.00" from="-1150" to="-723" departLane="best" departSpeed="max" departPos="random"/>
    <trip id="45" depart="112.50" from="-1504" to="1137" departLane="best" departSpeed="max" departPos="random"/>
    <trip id="46" depart="115.00" from="-1011" to="1759" departLane="best" departSpeed="max" departPos="random"/>
    <trip id="47" depart="117.50" from="-1175" to="2832" departLane="best" departSpeed="max" departPos="random"/>
    <trip id="48" depart="120.00" from="-3426" to="869" departLane="best" departSpeed="max" departPos="random"/>
    <trip id="49" depart="122.50" from="-25" to="1278" departLane="best" departSpeed="max" departPos="random"/>
    <trip id="50" depart="125.00" from="2130" to="-601" departLane="best" departSpeed="max" departPos="random"/>
    <trip id="51" depart="127.50" from="-3197" to="2363" departLane="best" departSpeed="max" departPos="random"/>
    <trip id="52" depart="130.00" from="742" to="39" departLane="best" departSpeed="max" departPos="random"/>
    <trip id="53" depart="132.50" from="-3438" to="2968" departLane="best" departSpeed="max" departPos="random"/>
    <trip id="54" depart="135.00" from="-2254" to="-1631" departLane="best" departSpeed="max" departPos="random"/>
    <trip id="55" depart="137.50" from="343" to="-1396" departLane="best" departSpeed="max" departPos="random"/>
    <trip id="56" depart="140.00" from="-578" to="177" departLane="best" departSpeed="max" departPos="random"/>
    <trip id="57" depart="142.50" from="-1773" to="2499" departLane="best" departSpeed="max" departPos="random"/>
    <trip id="58" depart="145.00" from="578" to="331" departLane="best" departSpeed="max" departPos="random"/>
    <trip id="59" depart="147.50" from="-3312" to="-1989" departLane="best" departSpeed="max" departPos="random"/>
    <trip id="60" depart="150.00" from="746" to="1631" departLane="best" departSpeed="max" departPos="random"/>
    <trip id="61" depart="152.50" from="1144" to="3426" departLane="best" departSpeed="max" departPos="random"/>
    <trip id="62" depart="155.00" from="-3312" to="-1504" departLane="best" departSpeed="max" departPos="random"/>
    <trip id="63" depart="157.50" from="-1755" to="2503" departLane="best" departSpeed="max" departPos="random"/>
    <trip id="64" depart="160.00" from="-3197" to="3461" departLane="best" departSpeed="max" departPos="random"/>
    <trip id="65" depart="162.50" from="204" to="854" departLane="best" departSpeed="max" departPos="random"/>
    <trip id="66" depart="165.00" from="1607" to="-464" departLane="best" departSpeed="max" departPos="random"/>
    <trip id="67" depart="167.50" from="2363" to="-1145" departLane="best" departSpeed="max" departPos="random"/>
    <trip id="68" depart="170.00" from="-586" to="3461" departLane="best" departSpeed="max" departPos="random"/>
    <trip id="69" depart="172.50" from="-5" to="-204" departLane="best" departSpeed="max" departPos="random"/>
    <trip id="70" depart="175.00" from="-453" to="1775" departLane="best" departSpeed="max" departPos="random"/>
    <trip id="71" depart="177.50" from="-3304" to="451" departLane="best" departSpeed="max" departPos="random"/>
    <trip id="72" depart="180.00" from="-3188" to="-333" departLane="best" departSpeed="max" departPos="random"/>
    <trip id="73" depart="182.50" from="-459" to="-2499" departLane="best" departSpeed="max" departPos="random"/>
    <trip id="74" depart="185.00" from="-2968" to="1001" departLane="best" departSpeed="max" departPos="random"/>
    <trip id="75" depart="187.50" from="601" to="-1632" departLane="best" departSpeed="max" departPos="random"/>
    <trip id="76" depart="190.00" from="-212" to="-2479" departLane="best" departSpeed="max" departPos="random"/>
    <trip id="77" depart="192.50" from="893" to="45" departLane="best" departSpeed="max" departPos="random"/>
    <trip id="78" depart="195.00" from="-208" to="1989" departLane="best" departSpeed="max" departPos="random"/>
    <trip id="79" depart="197.50" from="-1396" to="-587" departLane="best" departSpeed="max" departPos="random"/>
    <trip id="80" depart="200.00" from="-3189" to="177" departLane="best" departSpeed="max" departPos="random"/>
    <trip id="81" depart="202.50" from="595" to="343" departLane="best" departSpeed="max" departPos="random"/>
    <trip id="82" depart="205.00" from="-595" to="3312" departLane="best" departSpeed="max" departPos="random"/>
    <trip id="83" depart="207.50" from="-3461" to="3177" departLane="best" departSpeed="max" departPos="random"/>
    <trip id="84" depart="210.00" from="2832" to="2017" departLane="best" departSpeed="max" departPos="random"/>
    <trip id="85" depart="212.50" from="-3461" to="-997" departLane="best" departSpeed="max" departPos="random"/>
    <trip id="86" depart="215.00" from="-220" to="1617" departLane="best" departSpeed="max" departPos="random"/>
    <trip id="87" depart="217.50" from="-1633" to="228" departLane="best" departSpeed="max" departPos="random"/>
    <trip id="88" depart="220.00" from="455" to="3312" departLane="best" departSpeed="max" departPos="random"/>
    <trip id="89" depart="222.50" from="1003" to="1610" departLane="best" departSpeed="max" departPos="random"/>
    <trip id="90" depart="225.00" from="17" to="-194" departLane="best" departSpeed="max" departPos="random"/>
    <trip id="91" depart="227.50" from="-1143" to="3457" departLane="best" departSpeed="max" departPos="random"/>
    <trip id="92" depart="230.00" from="-33" to="2503" departLane="best" departSpeed="max" departPos="random"/>
    <trip id="93" depart="232.50" from="-3438" to="-727" departLane="best" departSpeed="max" departPos="random"/>
    <trip id="94" depart="235.00" from="2131" to="3438" departLane="best" departSpeed="max" departPos="random"/>
    <trip id="95" depart="237.50" from="-2017" to="750" departLane="best" departSpeed="max" departPos="random"/>
    <trip id="96" depart="240.00" from="-1150" to="1135" departLane="best" departSpeed="max" departPos="random"/>
    <trip id="97" depart="242.50" from="-453" to="3448" departLane="best" departSpeed="max" departPos="random"/>
    <trip id="98" depart="245.00" from="-2009" to="193" departLane="best" departSpeed="max" departPos="random"/>
    <trip id="99" depart="247.50" from="-3304" to="587" departLane="best" departSpeed="max" departPos="random"/>
    <trip id="100" depart="250.00" from="-1632" to="-33" departLane="best" departSpeed="max" departPos="random"/>
    <trip id="101" depart="252.50" from="2713" to="-593" departLane="best" departSpeed="max" departPos="random"/>
    <trip id="102" depart="255.00" from="608" to="-1280" departLane="best" departSpeed="max" departPos="random"/>
    <trip id="103" depart="257.50" from="-3312" to="-1775" departLane="best" departSpeed="max" departPos="random"/>
    <trip id="104" depart="260.00" from="-742" to="727" departLane="best" departSpeed="max" departPos="random"/>
    <trip id="105" depart="262.50" from="-3" to="2471" departLane="best" departSpeed="max" departPos="random"/>
    <trip id="106" depart="265.00" from="-2503" to="1137" departLane="best" departSpeed="max" departPos="random"/>
    <trip id="107" depart="267.50" from="-740" to="-3073" departLane="best" departSpeed="max" departPos="random"/>
    <trip id="108" depart="270.00" from="1643" to="1617" departLane="best" departSpeed="max" departPos="random"/>
    <trip id="109" depart="272.50" from="463" to="-343" departLane="best" departSpeed="max" departPos="random"/>
    <trip id="110" depart="275.00" from="720" to="-2255" departLane="best" departSpeed="max" departPos="random"/>
    <trip id="111" depart="277.50" from="-1135" to="2503" departLane="best" departSpeed="max" departPos="random"/>
    <trip id="112" depart="280.00" from="1991" to="1386" departLane="best" departSpeed="max" departPos="random"/>
    <trip id="113" depart="282.50" from="-1137" to="997" departLane="best" departSpeed="max" departPos="random"/>
    <trip id="114" depart="285.00" from="-177" to="3461" departLane="best" departSpeed="max" departPos="random"/>
    <trip id="115" depart="287.50" from="45" to="-2819" departLane="best" departSpeed="max" departPos="random"/>
    <trip id="116" depart="290.00" from="3189" to="1161" departLane="best" departSpeed="max" departPos="random"/>
    <trip id="117" depart="292.50" from="455" to="449" departLane="best" departSpeed="max" departPos="random"/>
    <trip id="118" depart="295.00" from="224" to="-451" departLane="best" departSpeed="max" departPos="random"/>
    <trip id="119" depart="297.50" from="-750" to="855" departLane="best" departSpeed="max" departPos="random"/>
    <trip id="120" depart="300.00" from="-2968" to="-879" departLane="best" departSpeed="max" departPos="random"/>
    <trip id="121" depart="302.50" from="1633" to="-1504" departLane="best" departSpeed="max" departPos="random"/>
    <trip id="122" depart="305.00" from="-2477" to="-220" departLane="best" departSpeed="max" departPos="random"/>
    <trip id="123" depart="307.50" from="-3438" to="1135" departLane="best" departSpeed="max" departPos="random"/>
    <trip id="124" depart="310.00" from="1003" to="1611" departLane="best" departSpeed="max" departPos="random"/>
    <trip id="125" depart="312.50" from="-194" to="-1175" departLane="best" departSpeed="max" departPos="random"/>
    <trip id="126" depart="315.00" from="-587" to="3304" departLane="best" departSpeed="max" departPos="random"/>
    <trip id="127" depart="317.50" from="593" to="3449" departLane="best" departSpeed="max" departPos="random"/>
    <trip id="128" depart="320.00" from="-2846" to="3457" departLane="best" departSpeed="max" departPos="random"/>
    <trip id="129" depart="322.50" from="-3457" to="-39" departLane="best" departSpeed="max" departPos="random"/>
    <trip id="130" depart="325.00" from="-1607" to="1138" departLane="best" departSpeed="max" departPos="random"/>
    <trip id="131" depart="327.50" from="-602" to="-3449" departLane="best" departSpeed="max" departPos="random"/>
    <trip id="132" depart="330.00" from="-208" to="602" departLane="best" departSpeed="max" departPos="random"/>
    <trip id="133" depart="332.50" from="-1161" to="602" departLane="best" departSpeed="max" departPos="random"/>
    <trip id="134" depart="335.00" from="-3426" to="3312" departLane="best" departSpeed="max" departPos="random"/>
    <trip id="135" depart="337.50" from="-1621" to="1993" departLane="best" departSpeed="max" departPos="random"/>
    <trip id="136" depart="340.00" from="2140" to="1137" departLane="best" departSpeed="max" departPos="random"/>
    <trip id="137" depart="342.50" from="-3197" to="1610" departLane="best" departSpeed="max" departPos="random"/>
    <trip id="138" depart="345.00" from="-208" to="-2712" departLane="best" departSpeed="max" departPos="random"/>
    <trip id="139" depart="347.50" from="-2363" to="-1160" departLane="best" departSpeed="max" departPos="random"/>
    <trip id="140" depart="350.00" from="5" to="-1611" departLane="best" departSpeed="max" departPos="random"/>
    <trip id="141" depart="352.50" from="593" to="-1011" departLane="best" departSpeed="max" departPos="random"/>
    <trip id="142" depart="355.00" from="1280" to="178" departLane="best" departSpeed="max" departPos="random"/>
    <trip id="143" depart="357.50" from="-1137" to="602" departLane="best" departSpeed="max" departPos="random"/>
    <trip id="144" depart="360.00" from="1989" to="3461" departLane="best" departSpeed="max" departPos="random"/>
    <trip id="145" depart="362.50" from="-3448" to="-453" departLane="best" departSpeed="max" departPos="random"/>
    <trip id="146" depart="365.00" from="-2017" to="-1783" departLane="best" departSpeed="max" departPos="random"/>
    <trip id="147" depart="367.50" from="1608" to="3438" departLane="best" departSpeed="max" departPos="random"/>
    <trip id="148" depart="370.00" from="-2140" to="-1144" departLane="best" departSpeed="max" departPos="random"/>
    <trip id="149" depart="372.50" from="-33" to="-2139" departLane="best" departSpeed="max" departPos="random"/>
    <trip id="150" depart="375.00" from="-224" to="-2821" departLane="best" departSpeed="max" departPos="random"/>
    <trip id="151" depart="377.50" from="15" to="1137" departLane="best" departSpeed="max" departPos="random"/>
    <trip id="152" depart="380.00" from="-721" to="-883" departLane="best" departSpeed="max" departPos="random"/>
    <trip id="153" depart="382.50" from="869" to="1611" departLane="best" departSpeed="max" departPos="random"/>
    <trip id="154" depart="385.00" from="-1137" to="-208" departLane="best" departSpeed="max" departPos="random"/>
    <trip id="155" depart="387.50" from="1989" to="572" departLane="best" departSpeed="max" departPos="random"/>
    <trip id="156" depart="390.00" from="-1633" to="1160" departLane="best" departSpeed="max" departPos="random"/>
    <trip id="157" depart="392.50" from="3189" to="184" departLane="best" departSpeed="max" departPos="random"/>
    <trip id="158" depart="395.00" from="-1135" to="1633" departLane="best" departSpeed="max" departPos="random"/>
    <trip id="159" depart="397.50" from="-2819" to="-2713" departLane="best" departSpeed="max" departPos="random"/>
    <trip id="160" depart="400.00" from="601" to="-1775" departLane="best" departSpeed="max" departPos="random"/>
    <trip id="161" depart="402.50" from="2831" to="3197" departLane="best" departSpeed="max" departPos="random"/>
    <trip id="162" depart="405.00" from="-879" to="-595" departLane="best" departSpeed="max" departPos="random"/>
    <trip id="163" depart="407.50" from="-1386" to="2503" departLane="best" departSpeed="max" departPos="random"/>
    <trip id="164" depart="410.00" from="723" to="-2254" departLane="best" departSpeed="max" departPos="random"/>
    <trip id="165" depart="412.50" from="-1633" to="1280" departLane="best" departSpeed="max" departPos="random"/>
    <trip id="166" depart="415.00" from="3073" to="-1003" departLane="best" departSpeed="max" departPos="random"/>
    <trip id="167" depart="417.50" from="228" to="-1643" departLane="best" departSpeed="max" departPos="random"/>
    <trip id="168" depart="420.00" from="-1137" to="-2126" departLane="best" departSpeed="max" departPos="random"/>
    <trip id="169" depart="422.50" from="-3453" to="601" departLane="best" departSpeed="max" departPos="random"/>
    <trip id="170" depart="425.00" from="1396" to="-15" departLane="best" departSpeed="max" departPos="random"/>
    <trip id="171" depart="427.50" from="-178" to="1160" departLane="best" departSpeed="max" departPos="random"/>
    <trip id="172" depart="430.00" from="-1504" to="2503" departLane="best" departSpeed="max" departPos="random"/>
    <trip id="173" depart="432.50" from="-3197" to="721" departLane="best" departSpeed="max" departPos="random"/>
    <trip id="174" depart="435.00" from="2713" to="3438" departLane="best" departSpeed="max" departPos="random"/>
    <trip id="175" depart="437.50" from="-2254" to="1137" departLane="best" departSpeed="max" departPos="random"/>
    <trip id="176" depart="440.00" from="1608" to="-1649" departLane="best" departSpeed="max" departPos="random"/>
    <trip id="177" depart="442.50" from="-1011" to="-597" departLane="best" departSpeed="max" departPos="random"/>
    <trip id="178" depart="445.00" from="-3426" to="3312" departLane="best" departSpeed="max" departPos="random"/>
    <trip id="179" depart="447.50" from="2712" to="-1396" departLane="best" departSpeed="max" departPos="random"/>
    <trip id="180" depart="450.00" from="-1160" to="589" departLane="best" departSpeed="max" departPos="random"/>
    <trip id="181" depart="452.50" from="-28" to="-1989" departLane="best" departSpeed="max" departPos="random"/>
    <trip id="182" depart="455.00" from="2365" to="3312" departLane="best" departSpeed="max" departPos="random"/>
    <trip id="183" depart="457.50" from="1001" to="3304" departLane="best" departSpeed="max" departPos="random"/>
    <trip id="184" depart="460.00" from="3188" to="3453" departLane="best" departSpeed="max" departPos="random"/>
    <trip id="185" depart="462.50" from="-2503" to="1135" departLane="best" departSpeed="max" departPos="random"/>
    <trip id="186" depart="465.00" from="869" to="-742" departLane="best" departSpeed="max" departPos="random"/>
    <trip id="187" depart="467.50" from="1143" to="3453" departLane="best" departSpeed="max" departPos="random"/>
    <trip id="188" depart="470.00" from="333" to="2131" departLane="best" departSpeed="max" departPos="random"/>
    <trip id="189" depart="472.50" from="-3197" to="2831" departLane="best" departSpeed="max" departPos="random"/>
    <trip id="190" depart="475.00" from="-1003" to="-720" departLane="best" departSpeed="max" departPos="random"/>
    <trip id="191" depart="477.50" from="2139" to="2471" departLane="best" departSpeed="max" departPos="random"/>
    <trip id="192" depart="480.00" from="-1280" to="2968" departLane="best" departSpeed="max" departPos="random"/>
    <trip id="193" depart="482.50" from="1005" to="1139" departLane="best" departSpeed="max" departPos="random"/>
    <trip id="194" depart="485.00" from="-1617" to="2126" departLane="best" departSpeed="max" departPos="random"/>
    <trip id="195" depart="487.50" from="212" to="-2477" departLane="best" departSpeed="max" departPos="random"/>
    <trip id="196" depart="490.00" from="1146" to="-1610" departLane="best" departSpeed="max" departPos="random"/>
    <trip id="197" depart="492.50" from="-2131" to="-727" departLane="best" departSpeed="max" departPos="random"/>
    <trip id="198" depart="495.00" from="45" to="855" departLane="best" departSpeed="max" departPos="random"/>
    <trip id="199" depart="497.50" from="-193" to="-1144" departLane="best" departSpeed="max" departPos="random"/>
    <trip id="200" depart="500.00" from="1989" to="3304" departLane="best" departSpeed="max" departPos="random"/>
    <trip id="201" depart="502.50" from="459" to="2503" departLane="best" departSpeed="max" departPos="random"/>
    <trip id="202" depart="505.00" from="2253" to="-740" departLane="best" departSpeed="max" departPos="random"/>
    <trip id="203" depart="507.50" from="-1611" to="997" departLane="best" departSpeed="max" departPos="random"/>
    <trip id="204" depart="510.00" from="1001" to="-331" departLane="best" departSpeed="max" departPos="random"/>
    <trip id="205" depart="512.50" from="451" to="-1611" departLane="best" departSpeed="max" departPos="random"/>
    <trip id="206" depart="515.00" from="-1145" to="-3188" departLane="best" departSpeed="max" departPos="random"/>
    <trip id="207" depart="517.50" from="-1643" to="1133" departLane="best" departSpeed="max" departPos="random"/>
    <trip id="208" depart="520.00" from="1138" to="1632" departLane="best" departSpeed="max" departPos="random"/>
    <trip id="209" depart="522.50" from="-67" to="-193" departLane="best" departSpeed="max" departPos="random"/>
    <trip id="210" depart="525.00" from="-597" to="750" departLane="best" departSpeed="max" departPos="random"/>
    <trip id="211" depart="527.50" from="-3073" to="3426" departLane="best" departSpeed="max" departPos="random"/>
    <trip id="212" depart="530.00" from="1150" to="3304" departLane="best" departSpeed="max" departPos="random"/>
    <trip id="213" depart="532.50" from="1386" to="1137" departLane="best" departSpeed="max" departPos="random"/>
    <trip id="214" depart="535.00" from="-2254" to="-17" departLane="best" departSpeed="max" departPos="random"/>
    <trip id="215" depart="537.50" from="-1621" to="-177" departLane="best" departSpeed="max" departPos="random"/>
    <trip id="216" depart="540.00" from="218" to="3448" departLane="best" departSpeed="max" departPos="random"/>
    <trip id="217" depart="542.50" from="2713" to="39" departLane="best" departSpeed="max" departPos="random"/>
    <trip id="218" depart="545.00" from="-3197" to="2710" departLane="best" departSpeed="max" departPos="random"/>
    <trip id="219" depart="547.50" from="28" to="-1993" departLane="best" departSpeed="max" departPos="random"/>
    <trip id="220" depart="550.00" from="-1001" to="-2710" departLane="best" departSpeed="max" departPos="random"/>
    <trip id="221" depart="552.50" from="578" to="3426" departLane="best" departSpeed="max" departPos="random"/>
    <trip id="222" depart="555.00" from="-1643" to="3453" departLane="best" departSpeed="max" departPos="random"/>
    <trip id="223" depart="557.50" from="-2009" to="-3300" departLane="best" departSpeed="max" departPos="random"/>
    <trip id="224" depart="560.00" from="-1989" to="39" departLane="best" departSpeed="max" departPos="random"/>
    <trip id="225" depart="562.50" from="2821" to="-1607" departLane="best" departSpeed="max" departPos="random"/>
    <trip id="226" depart="565.00" from="-1135" to="3312" departLane="best" departSpeed="max" departPos="random"/>
    <trip id="227" depart="567.50" from="-3312" to="1993" departLane="best" departSpeed="max" departPos="random"/>
    <trip id="228" depart="570.00" from="1150" to="1775" departLane="best" departSpeed="max" departPos="random"/>
    <trip id="229" depart="572.50" from="-2017" to="-578" departLane="best" departSpeed="max" departPos="random"/>
    <trip id="230" depart="575.00" from="-883" to="3312" departLane="best" departSpeed="max" departPos="random"/>
    <trip id="231" depart="577.50" from="-3188" to="-1143" departLane="best" departSpeed="max" departPos="random"/>
    <trip id="232" depart="580.00" from="-1773" to="-449" departLane="best" departSpeed="max" departPos="random"/>
    <trip id="233" depart="582.50" from="723" to="1137" departLane="best" departSpeed="max" departPos="random"/>
    <trip id="234" depart="585.00" from="-451" to="1135" departLane="best" departSpeed="max" departPos="random"/>
    <trip id="235" depart="587.50" from="-1783" to="2503" departLane="best" departSpeed="max" departPos="random"/>
    <trip id="236" depart="590.00" from="-614" to="455" departLane="best" departSpeed="max" departPos="random"/>
    <trip id="237" depart="592.50" from="-1150" to="2017" departLane="best" departSpeed="max" departPos="random"/>
    <trip id="238" depart="595.00" from="-2017" to="1993" departLane="best" departSpeed="max" departPos="random"/>
    <trip id="239" depart="597.50" from="2712" to="1137" departLane="best" departSpeed="max" departPos="random"/>
    <trip id="240" depart="600.00" from="-597" to="-740" departLane="best" departSpeed="max" departPos="random"/>
    <trip id="241" depart="602.50" from="-1504" to="-1169" departLane="best" departSpeed="max" departPos="random"/>
    <trip id="242" depart="605.00" from="-597" to="-578" departLane="best" departSpeed="max" departPos="random"/>
    <trip id="243" depart="607.50" from="-1137" to="2710" departLane="best" departSpeed="max" departPos="random"/>
    <trip id="244" depart="610.00" from="-184" to="2367" departLane="best" departSpeed="max" departPos="random"/>
    <trip id="245" depart="612.50" from="-1610" to="2968" departLane="best" departSpeed="max" departPos="random"/>
    <trip id="246" depart="615.00" from="2846" to="3426" departLane="best" departSpeed="max" departPos="random"/>
    <trip id="247" depart="617.50" from="3449" to="218" departLane="best" departSpeed="max" departPos="random"/>
    <trip id="248" depart="620.00" from="-3177" to="-2255" departLane="best" departSpeed="max" departPos="random"/>
    <trip id="249" depart="622.50" from="1386" to="746" departLane="best" departSpeed="max" departPos="random"/>
    <trip id="250" depart="625.00" from="1386" to="-1773" departLane="best" departSpeed="max" departPos="random"/>
    <trip id="251" depart="627.50" from="-1137" to="-2131" departLane="best" departSpeed="max" departPos="random"/>
    <trip id="252" depart="630.00" from="2477" to="-204" departLane="best" departSpeed="max" departPos="random"/>
    <trip id="253" depart="632.50" from="177" to="2017" departLane="best" departSpeed="max" departPos="random"/>
    <trip id="254" depart="635.00" from="-3300" to="1135" departLane="best" departSpeed="max" departPos="random"/>
    <trip id="255" depart="637.50" from="-2503" to="1133" departLane="best" departSpeed="max" departPos="random"/>
    <trip id="256" depart="640.00" from="-2017" to="17" departLane="best" departSpeed="max" departPos="random"/>
    <trip id="257" depart="642.50" from="1396" to="1783" departLane="best" departSpeed="max" departPos="random"/>