<?xml version="1.0" encoding="UTF-8"?>

<configuration>
    <input>
        <net-file value="karlsruhe3_cleaned2.net.xml"/>
        <route-files value="karlsruhe3.rou.xml"/>
    </input>

    <time>
        <begin value="0"/>
        <end value="10000"/>
    </time>

    <report>
        <verbose value="true"/>
        <no-step-log value="false"/>
    </report>
</configuration>
