<?xml version="1.0" encoding="UTF-8"?>

<!-- generated on 2025-07-30 22:12:47.647902 by randomTrips.py v1_24_0+0000-b72eb3fabc8
<configuration>
    <net-file value="karlsruhe3_cleaned2.net.xml"/>
    <output-trip-file value="karlsruhe3_new.rou.xml"/>
    <prefix value="veh"/>
    <trip-attributes value="departLane=&quot;best&quot; departSpeed=&quot;max&quot; departPos=&quot;random&quot;"/>
    <fringe-factor value="10.0"/>
    <end value="1000.0"/>
</configuration>
-->

<!-- generated on 2025-07-30 22:12:47 by Eclipse SUMO duarouter Version 1.24.0
<duarouterConfiguration xmlns:xsi="http://www.w3.org/2001/XMLSchema-instance" xsi:noNamespaceSchemaLocation="http://sumo.dlr.de/xsd/duarouterConfiguration.xsd">

    <input>
        <net-file value="karlsruhe3_cleaned2.net.xml"/>
        <route-files value="karlsruhe3_new.rou.xml"/>
    </input>

    <output>
        <output-file value="routes.rou.xml"/>
        <alternatives-output value="NUL"/>
    </output>

    <time>
        <begin value="0"/>
        <end value="1000.0"/>
    </time>

    <report>
        <no-warnings value="true"/>
        <ignore-errors value="true"/>
        <no-step-log value="true"/>
    </report>

</duarouterConfiguration>
-->

<routes xmlns:xsi="http://www.w3.org/2001/XMLSchema-instance" xsi:noNamespaceSchemaLocation="http://sumo.dlr.de/xsd/routes_file.xsd">
    <vehicle id="veh0" depart="0.00" departLane="best" departPos="random" departSpeed="max">
        <route edges="-428036771#2 -428036771#1 -428036771#0 -261750868 261750868 428036771#0 428036771#1 428036771#2 428036770#0 428036770#1 428036770#2 1157505351 1157505352 261750863#0 261750863#1 149710112 160803841 149723896#0 149723896#1 149723896#2 132833420#0 132833420#1 132833420#2 160803843 523772484 149723895 261743231 1157505355 149723892#0 149723892#1 149723892#2 1157505356 1157505358#0 1157505358#1 -1082513143#5 -1082513143#4 -1082513143#3 -1082513143#2 -1082513143#1 -1082513143#0 -1082513142#2 -1082513142#1 -1082513142#0 -1082513141 -3428809#6 -3428809#5 -3428809#4 -415869887"/>
    </vehicle>
    <vehicle id="veh1" depart="1.00" departLane="best" departPos="random" departSpeed="max">
        <route edges="376239877#0 376239877#1 376239874 159908039#0 159908039#1 159908039#2 159908039#3 376239876 376239875 3533995 160031108#0 160031108#1 753584090 566409385#0 566409385#1 -261420056 -450125406 -450125391 1304155014 179609886#0 179609886#1 261420055#0 261420055#1 450125401#0 450125401#1 4211386 137962150#0 137962150#1 137962150#2 261420059#0 4087296 3428809#2 3428809#3 1276314567 326502793#0 326502793#1 326502793#2"/>
    </vehicle>
    <vehicle id="veh2" depart="2.00" departLane="best" departPos="random" departSpeed="max">
        <route edges="56057361#0 56057361#1 -56057361#1 -56057361#0 261423863#0 261423863#1 1133544957 1133544956 342317282 1056385642 158008428#0 158008428#1 342317279 261423864#0 261423864#1 261423862#0 261423862#1 261423862#2 261423862#3 422738802#0 422738802#1 422738802#2 422738802#3 422738802#4 539890287 422738800#0 422738800#1 519956415#0 519956415#1 1025860967#0 1025860967#1 -90051672#3 -90051672#2 -90051672#1 -90051672#0 -4087296 261420059#1 261420059#2 171946381 -171946381"/>
    </vehicle>
    <vehicle id="veh3" depart="3.00" departLane="best" departPos="random" departSpeed="max">
        <route edges="1135899069 1135899070 450125396 450125391 450125406 261420056 -261420056 -450125406 -450125391 1304155014 179609886#0 179609886#1 261420055#0 261420055#1 450125401#0 450125401#1 261420050#0 261420050#1 1135899060 1135899061 261420052 261422783 -3454368#2 -3454368#1 -3454368#0 -1135899058 4211636 -503190615#2 -503190615#1 -503190615#0 -519956418#1 -519956418#0 -171942531 -1276416952 -1025860967#1 -1025860967#0 -519956415#1 -519956415#0 -422738800#1 -422738800#0 -539890287 422738801#0 422738801#1 422738801#2 422738801#3 -261423862#3 -261423862#2 -261423862#1 -261423862#0 -261423864#1 -261423864#0 -342317279 -158008428#1 -158008428#0 -1056385642 -261423865#1 -261423865#0 -1157505365 -149723891 -1157505362"/>
    </vehicle>
    <vehicle id="veh4" depart="4.00" departLane="best" departPos="random" departSpeed="max">
        <route edges="-1157505358#1 -1157505358#0 -1157505356 -149723892#2 -149723892#1 -149723892#0 -1157505355 160803840 1157505353 160803847 160803845#0 160803845#1 160803845#2 160803846#0 160803846#1 160803846#2 160803848 523772481 261750865 261750867 -261750863#1 -261750863#0 -1157505352 -1157505351 -428036770#2 -428036770#1 -428036770#0 -428036771#2 -428036771#1 -428036771#0 -261750868 -428036774#2 -428036774#1 -428036774#0 -384971140#4 -384971140#3 -384971140#2 -384971140#1 -384971140#0 -384971139"/>
    </vehicle>
    <vehicle id="veh5" depart="5.00" departLane="best" departPos="random" departSpeed="max">
        <route edges="310639257#1 -4059055#2 -4059055#1 -4059055#0 -1003269855#2 -1003269855#1 -1003269855#0 -181581824#2 -181581824#1 -181581824#0 -560562742 -560562743 -1248871134 -181581823 -1248871137 -310639256 -1248871138 -534092873 -261741010#6 -261741010#5 -261741010#4 171964224#0 171964224#1 171964224#2 -149399201 536435187#0 536435187#1 536435187#2 536435187#3 4818815 98331812 755621065 149399210#0 149399210#1 532743662 149399209#0 149399209#1 149399209#2 3527663 171947874#0 171947874#1 266635494 149399190 160951140"/>
    </vehicle>
    <vehicle id="veh6" depart="6.00" departLane="best" departPos="random" departSpeed="max">
        <route edges="-36966884 -36966883 36966883 36966884 4059033#0 4059033#1 4059033#2 4059033#3 601799190#0 601799190#1 601799187 49931897 -3454180#2 -3454180#1 -3454180#0 -1307793411#1 -1307793411#0 -171946381 -261420059#2 -261420059#1 -261420059#0 -137962150#2 -137962150#1 -137962150#0 -4211386 261420050#0 261420050#1 1135899060 1135899061 261420052 261422783 -3454368#2 -3454368#1 -3454368#0 -1135899058 1307918732 4211635#0 4211635#1 261418596 261418601"/>
    </vehicle>
    <vehicle id="veh7" depart="7.00" departLane="best" departPos="random" departSpeed="max">
        <route edges="428021295 1306866780 428021296#0 428021296#1 -98331811 4059065#0 4059065#1 171948480 668571648#0 668571648#1 668571648#2 536435187#0 536435187#1 536435187#2 536435187#3 4818815 98331812 755621065 149399210#0 149399210#1 532743662 149399209#0 149399209#1 149399209#2 160803843 523772484 149723895 261743231 1157505355 149723892#0 149723892#1 149723892#2 1157505356 1157505358#0 1157505358#1 184170266#0 184170266#1 1157505357 1157505360 1157505367 1157505362 149723891 1157505365 261423865#0 261423865#1 1056385642 158008428#0 158008428#1 342317279 261423864#0 261423864#1 261423862#0 -261423862#0 -261423864#1 -261423864#0 -342317279 -158008428#1 -158008428#0 -1056385642"/>
    </vehicle>
    <vehicle id="veh8" depart="8.00" departLane="best" departPos="random" departSpeed="max">
        <route edges="422738802#2 422738802#3 422738802#4 539890287 422738800#0 422738800#1 519956415#0 519956415#1 1025860967#0 1025860967#1 -90051672#3 -90051672#2 -90051672#1 -90051672#0 -4087296 261420059#1 261420059#2 171946381 1307793411#0 1307793411#1 3454180#0 3454180#1 3454180#2 159234717#0 159234717#1 159234717#2 702188965 4211383#0 4211383#1 4211383#2 36966883 36966884 162058716#0 162058716#1 689346034 741042672 689346040 689346039 689346038 689346036 162058717 741042670 741042671#0 741042671#1 741042671#2 689346035#0 689346035#1 689346035#2 310639256 1248871137 181581823 1248871134 560562743 560562742 181581824#0 181581824#1 181581824#2 1003269855#0 1003269855#1 1003269855#2 3454808#0"/>
    </vehicle>
    <vehicle id="veh9" depart="9.00" departLane="best" departPos="random" departSpeed="max">
        <route edges="-56057361#1 -56057361#0 261423863#0 261423863#1 1133544957 1133544956 342317282 1056385642 158008428#0 158008428#1 342317279 261423864#0 261423864#1 261423862#0 261423862#1 261423862#2 -1301927136#2 -1301927136#1 -1301927136#0 -4295992#2 -4295992#1 -4295992#0 -1082513142#2 -1082513142#1 -1082513142#0 -1082513141 -3428809#6"/>
    </vehicle>
    <vehicle id="veh10" depart="10.00" departLane="best" departPos="random" departSpeed="max">
        <route edges="477157310 477157309 49931898#0 49931898#1 261421751 171946379 -261420059#2 -261420059#1 261420059#1"/>
    </vehicle>
    <vehicle id="veh11" depart="11.00" departLane="best" departPos="random" departSpeed="max">
        <route edges="422738802#3 422738802#4 539890287 422738800#0 422738800#1 519956415#0 519956415#1 1025860967#0 1025860967#1 -90051672#3 -90051672#2 -90051672#1 -90051672#0 -4087296 261420059#1 261420059#2 171946381 1307793411#0 1307793411#1 3454180#0 3454180#1 3454180#2 159234717#0 159234717#1 159234717#2 36894772#0 36894772#1 36894772#2 36894772#3 230765089#0 230765089#1 230765089#2 4570906#0 4570906#1 362075988 362075987"/>
    </vehicle>
    <vehicle id="veh12" depart="12.00" departLane="best" departPos="random" departSpeed="max">
        <route edges="-999241257#0 4818835#2 4818835#3 4818835#4 184170266#0 184170266#1 1157505357 1157505360 1157505367 1157505362 149723891 1157505365 261423865#0 261423865#1 1056385642 158008428#0 158008428#1 342317279 261423864#0 261423864#1 261423862#0 261423862#1 261423862#2 261423862#3 422738802#0 422738802#1 422738802#2 422738802#3 422738802#4 539890287 422738800#0 422738800#1 519956415#0 519956415#1 1025860967#0 1025860967#1 1276416952 171942531 519956418#0 519956418#1 503190615#0 503190615#1 503190615#2 -4211636 1135899058 3454368#0 3454368#1 3454368#2 159895657 123095957 261420054#0 261420054#1 261420054#2 90171086 1135899068 1135899069 1135899070 -708234065 -159902717 -1025127002 -708234064 1025127003 159902718#0 159902718#1 159902718#2 159902718#3 4059036 49931898#0 49931898#1 261421751 171946379"/>
    </vehicle>
    <vehicle id="veh13" depart="13.00" departLane="best" departPos="random" departSpeed="max">
        <route edges="428036775#0 428036775#1 3577471#0 3577471#1 3577471#2 3577471#3 3577471#4 160803838#0 160803838#1 160803838#2 352646127 3527802#0 3527802#1 261741011#0 261741011#1 4059064#0 4059064#1 4059064#2 4059064#3 98331811 261741010#0 261741010#1 261741010#2 261741010#3 261741010#4 261741010#5 261741010#6 534092873 1248871138 310639256 1248871137 181581823 1248871134 560562743 560562742 181581824#0 181581824#1 181581824#2 1003269855#0 1003269855#1 1003269855#2 3454808#0 3454808#1 261564748#0"/>
    </vehicle>
    <vehicle id="veh14" depart="14.00" departLane="best" departPos="random" departSpeed="max">
        <route edges="4818835#0 4818835#1 4818835#2 4818835#3 4818835#4 -1157505358#1 -1157505358#0 -1157505356 -149723892#2 -149723892#1 -149723892#0 -1157505355 160803840 1157505353 160803847 160803845#0 160803845#1 160803845#2 160803846#0 160803846#1 160803846#2 352646127 3527802#0 3527802#1 261741011#0 261741011#1 24581553"/>
    </vehicle>
    <vehicle id="veh15" depart="15.00" departLane="best" departPos="random" departSpeed="max">
        <route edges="3527440#0 3527440#1 3527440#2 3527424#0 3527424#1 3527424#2 3527424#3 3527424#4 3527424#5 3527424#6 3527424#7 4818835#2 4818835#3 4818835#4 184170266#0 184170266#1 1157505357 1157505360 1157505367 1157505362 149723891 1157505365 261423865#0 261423865#1 1056385642 158008428#0 158008428#1 342317279 261423864#0 261423864#1 261423862#0 261423862#1 261423862#2 -1301927136#2 -1301927136#1"/>
    </vehicle>
    <vehicle id="veh16" depart="16.00" departLane="best" departPos="random" departSpeed="max">
        <route edges="-376239875 -376239876 -159908039#3 -159908039#2 -159908039#1 -159908039#0 -376239874 -376239877#1 -376239877#0 -159908038 154343753 -154343753 159908038 376239877#0 376239877#1 376239874 159908039#0 159908039#1 159908039#2 159908039#3 376239876 376239875 3533995 160031108#0 160031108#1 753584090 566409385#0 566409385#1 -261420056 -450125406 -450125391 1304155014 179609886#0 179609886#1 261420055#0 261420055#1 450125401#0 450125401#1 4211386 137962150#0 137962150#1 137962150#2 261420059#0 261420059#1 261420059#2 171946381 1307793411#0 1307793411#1 3454180#0 3454180#1 3454180#2 159234717#0 159234717#1 159234717#2 702188965 4211383#0 4211383#1 4211383#2 36966883 36966884 162058716#0 162058716#1 689346034 741042672 689346040 689346039 689346038 689346036 162058717 741042670 741042671#0 741042671#1 741042671#2 689346035#0 689346035#1 689346035#2 310639256 1248871137 181581823 1248871134 560562743 560562742 181581824#0 181581824#1 181581824#2 1003269855#0 1003269855#1 1003269855#2 -1003269855#2 -1003269855#1 -1003269855#0 -181581824#2 -181581824#1 -181581824#0 -560562742 -560562743"/>
    </vehicle>
    <vehicle id="veh17" depart="17.00" departLane="best" departPos="random" departSpeed="max">
        <route edges="-159908039#2 -159908039#1 -159908039#0 -376239874 -376239877#1 -376239877#0 -159908038 154343753 -154343753 159908038 376239877#0 376239877#1 376239874 159908039#0 159908039#1 159908039#2 159908039#3 376239876 376239875 3533995 160031108#0 160031108#1 753584090 566409385#0 566409385#1 -261420056 -450125406 -450125391 1304155014 179609886#0 179609886#1 261420055#0 261420055#1 450125401#0 450125401#1 4211386 137962150#0 137962150#1 137962150#2 261420059#0 261420059#1 261420059#2 171946381 1307793411#0 1307793411#1 3454180#0 3454180#1 3454180#2 159234717#0 159234717#1 159234717#2 36894772#0 36894772#1 36894772#2 36894772#3 230765089#0 230765089#1 230765089#2 24581555 755621065 149399210#0 149399210#1 532743662 149399209#0 149399209#1 149399209#2 3527663 160803846#0 160803846#1 160803846#2 160803848 523772481 261750865 261750867 -261750863#1 -261750863#0 -1157505352 -1157505351 -428036770#2 3577472#0 3577472#1 3577472#2 428021295 -428021295"/>
    </vehicle>
    <vehicle id="veh18" depart="18.00" departLane="best" departPos="random" departSpeed="max">
        <route edges="-160611126#5 -160611126#4 -160611126#3 -160611126#2 -160611126#1 -160611126#0 -160484291#4 -160484291#3 -160484291#2 -160484291#1 -160484291#0 497870890 -497870890"/>
    </vehicle>
    <vehicle id="veh19" depart="19.00" departLane="best" departPos="random" departSpeed="max">
        <route edges="261750866 428036769 428036772#0 428036772#1 428036772#2 428036768 261750868 428036771#0 428036771#1 428036771#2 428036770#0 428036770#1 428036770#2 1157505351 1157505352 261750863#0 261750863#1 149710112 160803841 149723896#0 149723896#1 149723896#2 132833420#0 132833420#1 132833420#2 160803843 523772484 149723895 261743231 1157505355 149723892#0 149723892#1 149723892#2 1157505356 1157505358#0 1157505358#1 -1082513143#5 -1082513143#4 -1082513143#3 -1082513143#2 -1082513143#1 -1082513143#0 -1082513142#2 -1082513142#1 -1082513142#0 -1082513141 -3428809#6 -3428809#5 -3428809#4 3428809#4 3428809#5 3428809#6 1082513141 1082513142#0 1082513142#1 1082513142#2"/>
    </vehicle>
    <vehicle id="veh20" depart="20.00" departLane="best" departPos="random" departSpeed="max">
        <route edges="-741042671#2 -741042671#1 -741042671#0 -741042670 -162058717 -689346036 -689346038 -689346039 -689346040 689346040 689346039 689346038 689346036 162058717 741042670 741042671#0 741042671#1 741042671#2 689346035#0 689346035#1 689346035#2 310639256 1248871137 181581823 1248871134 560562743 560562742 181581824#0 181581824#1 181581824#2 1003269855#0 1003269855#1 1003269855#2 4059055#0 4059055#1 4059055#2 -310639257#1 -310639257#0 -863412061 863412061 310639257#0 310639257#1 -4059055#2 -4059055#1 -4059055#0"/>
    </vehicle>
    <vehicle id="veh21" depart="21.00" departLane="best" departPos="random" departSpeed="max">
        <route edges="-428021295 -3577472#2 -3577472#1 -3577472#0 428036770#2 1157505351 1157505352 261750863#0 261750863#1 149710112 160803841 149723896#0 149723896#1 149723896#2 3527802#0 3527802#1 261741011#0 261741011#1 24581553 171948480 668571648#0 -4068427#2 -4068427#1 -4068427#0 317552926 -36894772#3 -36894772#2 -36894772#1 -36894772#0 -159234717#2 -159234717#1 -159234717#0 -3454180#2 -3454180#1 -3454180#0 -1307793411#1 -1307793411#0 -171946381 -261420059#2 -261420059#1 -261420059#0 -137962150#2 -137962150#1 -137962150#0 90171086 1135899068 1135899069 1135899070 -708234065 -159902717 -1025127002 -708234064 4059037 566409382#0 566409382#1"/>
    </vehicle>
    <vehicle id="veh22" depart="22.00" departLane="best" departPos="random" departSpeed="max">
        <route edges="310639256 1248871137 181581823 1248871134 560562743 560562742 181581824#0 181581824#1 181581824#2 1003269855#0 1003269855#1 1003269855#2 3454808#0 3454808#1 261564748#0 261564748#1 261564748#2 261564748#3 260924071 260924072 179310598#0 179310598#1 179310598#2 179310598#3 179310598#4 179310598#5 352645639#0 352645639#1 352645639#2 352645639#3 477157312#0 477157312#1 477157311 477157310 477157309 49931898#0 49931898#1 261421751 171946377 1307793411#0 1307793411#1 3428811 415869887 1276314567 326502793#0 326502793#1 326502793#2 326502793#3 326502793#4 1276314566 708243078 -422738800#1 -422738800#0 -539890287 422738801#0 422738801#1 422738801#2 422738801#3 -261423862#3 -261423862#2 -261423862#1 261423862#1"/>
    </vehicle>
    <vehicle id="veh23" depart="23.00" departLane="best" departPos="random" departSpeed="max">
        <route edges="-326502793#4 -326502793#3 -326502793#2 -326502793#1 -326502793#0 -1276314567 -3428809#3 -3428809#2 -4087296 261420059#1 261420059#2 171946381 1307793411#0 1307793411#1 3454180#0 3454180#1 3454180#2 159234717#0 159234717#1 159234717#2 36894772#0 36894772#1 36894772#2 36894772#3 230765089#0 230765089#1 230765089#2 4570906#0 4570906#1 362075988 362075987"/>
    </vehicle>
    <vehicle id="veh24" depart="24.00" departLane="best" departPos="random" departSpeed="max">
        <route edges="90051672#1 90051672#2 90051672#3 -1025860967#1 -1025860967#0 -519956415#1 -519956415#0 -422738800#1 -422738800#0 -539890287 422738801#0 422738801#1 422738801#2 422738801#3 -261423862#3 -261423862#2 -261423862#1 -261423862#0 -261423864#1 -261423864#0 -342317279 -158008428#1 -158008428#0 -1056385642 -261423865#1 -261423865#0 -1157505365 -149723891 -1157505362 -1157505367 -1157505360 -1157505357 -184170266#1 -184170266#0 -1157505358#1 -1157505358#0 -1157505356 -149723892#2 -149723892#1 -149723892#0 -1157505355 160803840 1157505353 160803847 266635496#0 266635496#1"/>
    </vehicle>
    <vehicle id="veh25" depart="25.00" departLane="best" departPos="random" departSpeed="max">
        <route edges="4570906#1 362075988 362075987 -362075987 -362075988 -4570906#1 -4570906#0 24581555 755621065 149399210#0 149399210#1 532743662 149399209#0 149399209#1 149399209#2 3527663 160803846#0 160803846#1 160803846#2 352646127 3527802#0 3527802#1 261741011#0 261741011#1 24581553 171948480 668571648#0 668571648#1 668571648#2 149399201 36966883 36966884 4059033#0 4059033#1 4059033#2 4059033#3 601799190#0 601799190#1 601799187 4059030#0 4059030#1"/>
    </vehicle>
    <vehicle id="veh26" depart="26.00" departLane="best" departPos="random" departSpeed="max">
        <route edges="-376239875 -376239876 -159908039#3 -159908039#2 -159908039#1 -159908039#0 -376239874 -376239877#1 -376239877#0 -159908038 154343753 -154343753 159908038 376239877#0 376239877#1 376239874 159908039#0 159908039#1 159908039#2 159908039#3 376239876 376239875 3533995 160031108#0 160031108#1 753584090 566409385#0 566409385#1 -261420056 -450125406 -450125391 1304155014 179609886#0 179609886#1 261420055#0 261420055#1 450125401#0 450125401#1 261420050#0 261420050#1 1135899060 1135899061 261420052 261422783 -3454368#2 -3454368#1 -3454368#0 -1135899058 4211636 -503190615#2 -503190615#1 -503190615#0 -519956418#1 -519956418#0 -171942531 -1276416952 -1025860967#1 -1025860967#0 -519956415#1 -519956415#0 -422738800#1 -422738800#0 -539890287 422738801#0 422738801#1 422738801#2 422738801#3 -261423862#3 -261423862#2 -261423862#1 -261423862#0 -261423864#1 -261423864#0 -342317279 -158008428#1 -158008428#0 -1056385642 -261423865#1 -261423865#0 -1157505365 -149723891 -1157505362 -1157505367"/>
    </vehicle>
    <vehicle id="veh27" depart="27.00" departLane="best" departPos="random" departSpeed="max">
        <route edges="-362075987 -362075988 -4570906#1 -4570906#0 24581555 755621065 149399210#0 149399210#1 532743662 149399209#0 149399209#1 149399209#2 3527663 160803846#0 160803846#1 160803846#2 352646127 3527802#0 3527802#1 261741011#0 261741011#1 24581553 171948480 668571648#0 668571648#1 668571648#2 149399201 36966883 36966884 4059033#0 4059033#1 4059033#2 4059033#3 601799190#0 601799190#1"/>
    </vehicle>
    <vehicle id="veh28" depart="28.00" departLane="best" departPos="random" departSpeed="max">
        <route edges="503190615#2 -4211636 1135899058 3454368#0 3454368#1 3454368#2 159895657 123095957 261420054#0 261420054#1 261420054#2 90171086 1135899068 1135899069 1135899070 -708234065 -159902717 -1025127002 -708234064"/>
    </vehicle>
    <vehicle id="veh29" depart="29.00" departLane="best" departPos="random" departSpeed="max">
        <route edges="326502793#1 326502793#2 326502793#3 326502793#4 1276314566 708243078 -422738800#1 -422738800#0 -539890287 422738801#0 422738801#1 422738801#2 422738801#3 -261423862#3 -261423862#2 -261423862#1 -261423862#0 -261423864#1 -261423864#0 -342317279 -158008428#1 -158008428#0 -1056385642 -261423865#1 -261423865#0 -1157505365 -149723891 -1157505362 -1157505367 1157505367"/>
    </vehicle>
    <vehicle id="veh30" depart="30.00" departLane="best" departPos="random" departSpeed="max">
        <route edges="601799190#1 601799187 49931897 -3454180#2 -3454180#1 -3454180#0 3428811 415869887 1276314567 326502793#0 326502793#1 326502793#2 326502793#3 326502793#4 1276314566 708243078 -422738800#1 -422738800#0 -539890287 422738801#0 422738801#1 422738801#2 422738801#3 -261423862#3 -261423862#2 -261423862#1 -261423862#0 -261423864#1 -261423864#0 -342317279 -158008428#1 -158008428#0 -1056385642 1133544951 150078330"/>
    </vehicle>
    <vehicle id="veh31" depart="31.00" departLane="best" departPos="random" departSpeed="max">
        <route edges="-422738800#0 -539890287 422738801#0 422738801#1 422738801#2 422738801#3 -261423862#3 -261423862#2 -261423862#1 -261423862#0 -261423864#1 -261423864#0 -342317279 -158008428#1 -158008428#0 -1056385642 -261423865#1 -261423865#0 -1157505365 -149723891 -1157505362 -1157505367 -1157505360 -1157505357 -184170266#1 -184170266#0 -1157505358#1 -1157505358#0 -1157505356 -149723892#2 -149723892#1 -149723892#0 -1157505355 160803840 1157505353 160803847 160803845#0 160803845#1 160803845#2 160803846#0 160803846#1 160803846#2 160803848 523772481 261750865 261750867 -261750863#1 -261750863#0 -1157505352 -1157505351 -428036770#2 -428036770#1 -428036770#0 -428036771#2 -428036771#1 -428036771#0 -261750868 -428036774#2 -428036774#1 -428036774#0"/>
    </vehicle>
    <vehicle id="veh32" depart="32.00" departLane="best" departPos="random" departSpeed="max">
        <route edges="261418596 261418601 -261418601 -261418596 -4211635#1 -4211635#0 -1307918732 1135899058 3454368#0 3454368#1 3454368#2 159895657 123095957 261420054#0 261420054#1 261420054#2 137962150#0 137962150#1 137962150#2 261420059#0 261420059#1 261420059#2 171946381 1307793411#0 1307793411#1 3454180#0 3454180#1 3454180#2 159234717#0 159234717#1 159234717#2 702188965 4211383#0 4211383#1 4211383#2 36966883 36966884 162058716#0 162058716#1 689346034 741042672 689346040 689346039 689346038 689346036 162058717 741042670 741042671#0 741042671#1 741042671#2 689346035#0 689346035#1 689346035#2 310639256 1248871137 181581823 1248871134 560562743 560562742 181581824#0 181581824#1 181581824#2 1003269855#0 1003269855#1 1003269855#2 3454808#0 3454808#1 261564748#0 261564748#1 261564748#2 261564748#3 260924071 260924072 179310598#0 179310598#1 179310598#2 179310598#3 179310598#4 179310598#5 352645639#0 352645639#1 352645639#2 352645639#3 477157312#0 477157312#1"/>
    </vehicle>
    <vehicle id="veh33" depart="33.00" departLane="best" departPos="random" departSpeed="max">
        <route edges="1025860967#1 -90051672#3 -90051672#2 -90051672#1 -90051672#0 3428809#2 3428809#3 -415869887"/>
    </vehicle>
    <vehicle id="veh34" depart="34.00" departLane="best" departPos="random" departSpeed="max">
        <route edges="-184170266#0 -1157505358#1 -1157505358#0 -1157505356 -149723892#2 -149723892#1 -149723892#0 -1157505355 160803840 1157505353 160803847 160803845#0 160803845#1 160803845#2 160803846#0 160803846#1 160803846#2 352646127 3527802#0 3527802#1 261741011#0 261741011#1 4059064#0 4059064#1 4059064#2 4059064#3 98331811 261741010#0 261741010#1 261741010#2 261741010#3 261741010#4 261741010#5"/>
    </vehicle>
    <vehicle id="veh35" depart="35.00" departLane="best" departPos="random" departSpeed="max">
        <route edges="4211633 1133544952 -342317282 -1133544956 -1133544957 -261423863#1 -261423863#0 56057361#0 56057361#1 -56057361#1 -56057361#0 261423863#0 261423863#1 1133544957 1133544956 342317282 1056385642 158008428#0 158008428#1 342317279 261423864#0 261423864#1 261423862#0 261423862#1 261423862#2 261423862#3 422738802#0 422738802#1 422738802#2 422738802#3 422738802#4 539890287 422738800#0 422738800#1 519956415#0 519956415#1 1025860967#0 1025860967#1 1276416952 171942531 519956418#0 519956418#1 503190615#0 503190615#1 503190615#2 -4211636 1135899058 3454368#0 3454368#1 3454368#2 159895657 123095957 261420054#0 261420054#1 261420054#2 137962150#0"/>
    </vehicle>
    <vehicle id="veh36" depart="36.00" departLane="best" departPos="random" departSpeed="max">
        <route edges="-154343753 159908038 376239877#0 376239877#1 376239874 159908039#0 159908039#1 159908039#2 159908039#3 376239876 376239875 3533995 160031108#0 160031108#1 753584090 566409385#0 566409385#1 -261420056 -450125406 -450125391 1304155014 179609886#0 179609886#1 261420055#0 261420055#1 450125401#0 450125401#1 4211386 90171086 1135899068"/>
    </vehicle>
    <vehicle id="veh37" depart="37.00" departLane="best" departPos="random" departSpeed="max">
        <route edges="-1082513143#0 1082513143#0 1082513143#1 1082513143#2 1082513143#3 1082513143#4 1082513143#5 -1157505358#1 -1157505358#0 -1157505356 -149723892#2 -149723892#1 -149723892#0 -1157505355 160803840 1157505353 160803847 160803845#0 160803845#1 160803845#2 160803846#0 160803846#1 160803846#2 160803848 523772481 261750865 261750867 -261750863#1 -261750863#0 -1157505352 -1157505351 -428036770#2 -428036770#1 -428036770#0 -428036771#2 -428036771#1 -428036771#0 -261750868 159700888#0 159700888#1 159700888#2 428036773 428036775#0 428036775#1 3577471#0 3577471#1"/>
    </vehicle>
    <vehicle id="veh38" depart="38.00" departLane="best" departPos="random" departSpeed="max">
        <route edges="3454369#0 3454369#1 -261420056 -450125406 -450125391 1304155014 179609886#0 179609886#1 261420055#0 261420055#1 450125401#0 450125401#1 261420050#0 261420050#1 1135899060 1135899061 261420052 261422783 -3454368#2 -3454368#1 -3454368#0 -1135899058 4211636 -503190615#2 -503190615#1 -503190615#0 -519956418#1 -519956418#0 -171942531 -1276416952 -1025860967#1 -1025860967#0 -519956415#1 -519956415#0 -422738800#1 -422738800#0 -539890287 422738801#0 422738801#1 422738801#2 422738801#3 -261423862#3 -261423862#2 -261423862#1 -261423862#0 -261423864#1 -261423864#0 -342317279 -158008428#1 -158008428#0 -1056385642 -261423865#1 -261423865#0 -1157505365 -149723891 -1157505362 -1157505367 -1157505360 -1157505357 -184170266#1 -184170266#0 -1157505358#1 -1157505358#0 -1157505356 -149723892#2 -149723892#1 -149723892#0 -1157505355 160803840 1157505353 160803847 160803845#0"/>
    </vehicle>
    <vehicle id="veh39" depart="39.00" departLane="best" departPos="random" departSpeed="max">
        <route edges="-428021295 -3577472#2 -3577472#1 -3577472#0 428036770#2 1157505351 1157505352 261750863#0 261750863#1 149710112 160803841 149723896#0 149723896#1 149723896#2 132833420#0 132833420#1 132833420#2 160803843 523772484 149723895 261743231 1157505355 149723892#0 149723892#1 149723892#2 1157505356 1157505358#0 1157505358#1 -1157505358#1 -1157505358#0 -1157505356 -149723892#2 -149723892#1 -149723892#0 -1157505355 160803840 1157505353 160803847 266635496#0 266635496#1 266635496#2"/>
    </vehicle>
    <vehicle id="veh40" depart="40.00" departLane="best" departPos="random" departSpeed="max">
        <route edges="-261418596 -4211635#1 -4211635#0 -1307918732 4211636 -503190615#2 -503190615#1 -503190615#0 -519956418#1 -519956418#0 -171942531 -1276416952 -1025860967#1 -1025860967#0 -519956415#1 -519956415#0 -422738800#1 -422738800#0 -539890287 422738801#0 422738801#1 422738801#2 422738801#3 -261423862#3 -261423862#2 -261423862#1 -261423862#0 -261423864#1 -261423864#0 -342317279 -158008428#1 -158008428#0 -1056385642 -261423865#1 -261423865#0 -1157505365 -149723891 -1157505362 -1157505367 -1157505360 -1157505357 -184170266#1 -184170266#0 -1157505358#1 -1157505358#0 -1157505356 -149723892#2 -149723892#1 -149723892#0 -1157505355 160803840 1157505353 160803847 266635496#0 266635496#1 266635496#2 266635494 149399190 149399187#0 149399187#1"/>
    </vehicle>
    <vehicle id="veh41" depart="41.00" departLane="best" departPos="random" departSpeed="max">
        <route edges="1307793411#1 3454180#0 3454180#1 3454180#2 159234717#0 159234717#1 159234717#2 702188965 4211383#0 4211383#1 4211383#2 36966883 36966884 162058716#0 162058716#1 689346034 741042672 689346040 689346039"/>
    </vehicle>
    <vehicle id="veh42" depart="42.00" departLane="best" departPos="random" departSpeed="max">
        <route edges="503190615#2 -4211636 4211636 -503190615#2 -503190615#1 -503190615#0 -519956418#1 -519956418#0 -171942531 -1276416952 -1025860967#1 -1025860967#0 -519956415#1 -519956415#0 -422738800#1 -422738800#0 -539890287 422738801#0 422738801#1 422738801#2 422738801#3 -261423862#3 -261423862#2 -261423862#1 -261423862#0 -261423864#1 -261423864#0 -342317279 -158008428#1 -158008428#0 -1056385642 -261423865#1 -261423865#0 -1157505365 -149723891 -1157505362 -1157505367 -1157505360 -1157505357 -184170266#1 -184170266#0 -4818835#4 -4818835#3 -4818835#2 -4818835#1 -4818835#0"/>
    </vehicle>
    <vehicle id="veh43" depart="43.00" departLane="best" departPos="random" departSpeed="max">