<?xml version="1.0" encoding="UTF-8"?>

<!-- generated on 2025-08-04 11:14:07 by Eclipse SUMO netgenerate Version 1.24.0
<netgenerateConfiguration xmlns:xsi="http://www.w3.org/2001/XMLSchema-instance" xsi:noNamespaceSchemaLocation="http://sumo.dlr.de/xsd/netgenerateConfiguration.xsd">

    <random_network>
        <rand value="true"/>
        <rand.iterations value="120"/>
        <rand.max-distance value="60"/>
        <rand.min-distance value="30"/>
        <rand.connectivity value="0.85"/>
        <rand.neighbor-dist2 value="10"/>
        <rand.neighbor-dist3 value="25"/>
        <rand.neighbor-dist4 value="15"/>
        <rand.neighbor-dist5 value="5"/>
        <rand.grid value="true"/>
    </random_network>

    <output>
        <output-file value="net_smartgrid_tls_target5to8.net.xml"/>
    </output>

    <processing>
        <random-lanenumber value="true"/>
    </processing>

    <building_defaults>
        <default.lanenumber value="2"/>
        <default-junction-type value="priority"/>
    </building_defaults>

    <tls_building>
        <tls.guess value="true"/>
        <tls.guess.threshold value="90"/>
    </tls_building>

</netgenerateConfiguration>
-->

<net version="1.20" junctionCornerDetail="5" limitTurnSpeed="5.50" xmlns:xsi="http://www.w3.org/2001/XMLSchema-instance" xsi:noNamespaceSchemaLocation="http://sumo.dlr.de/xsd/net_file.xsd">

    <location netOffset="210.00,300.00" convBoundary="0.00,0.00,540.00,390.00" origBoundary="-210.00,-300.00,330.00,90.00" projParameter="!"/>

    <edge id=":1_0" function="internal">
        <lane id=":1_0_0" index="0" speed="6.51" length="9.03" shape="205.20,310.40 204.85,307.95 203.80,306.20 202.05,305.15 199.60,304.80"/>
    </edge>
    <edge id=":1_1" function="internal">
        <lane id=":1_1_0" index="0" speed="13.89" length="20.80" shape="205.20,310.40 205.20,289.60"/>
        <lane id=":1_1_1" index="1" speed="13.89" length="20.80" shape="208.40,310.40 208.40,289.60"/>
    </edge>
    <edge id=":1_3" function="internal">
        <lane id=":1_3_0" index="0" speed="9.26" length="5.01" shape="208.40,310.40 209.11,305.44"/>
    </edge>
    <edge id=":1_4" function="internal">
        <lane id=":1_4_0" index="0" speed="3.65" length="1.44" shape="208.40,310.40 209.20,309.20"/>
    </edge>
    <edge id=":1_20" function="internal">
        <lane id=":1_20_0" index="0" speed="9.26" length="14.34" shape="209.11,305.44 209.15,305.15 211.40,301.40 215.15,299.15 220.40,298.40"/>
    </edge>
    <edge id=":1_21" function="internal">
        <lane id=":1_21_0" index="0" speed="3.65" length="3.23" shape="209.20,309.20 210.00,308.80 210.80,309.20 211.60,310.40"/>
    </edge>
    <edge id=":1_5" function="internal">
        <lane id=":1_5_0" index="0" speed="7.33" length="11.73" shape="220.40,301.60 217.95,302.15 216.20,303.80 215.15,306.55 214.80,310.40"/>
    </edge>
    <edge id=":1_6" function="internal">
        <lane id=":1_6_0" index="0" speed="13.89" length="20.94" shape="220.40,301.60 216.45,302.10 211.88,303.20 206.37,304.30 199.60,304.80"/>
        <lane id=":1_6_1" index="1" speed="13.89" length="20.94" shape="220.40,301.60 199.60,301.60"/>
    </edge>
    <edge id=":1_8" function="internal">
        <lane id=":1_8_0" index="0" speed="9.26" length="5.01" shape="220.40,301.60 215.44,300.89"/>
    </edge>
    <edge id=":1_9" function="internal">
        <lane id=":1_9_0" index="0" speed="3.65" length="1.44" shape="220.40,301.60 219.20,300.80"/>
    </edge>
    <edge id=":1_22" function="internal">
        <lane id=":1_22_0" index="0" speed="9.26" length="14.34" shape="215.44,300.89 215.15,300.85 211.40,298.60 209.15,294.85 208.40,289.60"/>
    </edge>
    <edge id=":1_23" function="internal">
        <lane id=":1_23_0" index="0" speed="3.65" length="3.23" shape="219.20,300.80 218.80,300.00 219.20,299.20 220.40,298.40"/>
    </edge>
    <edge id=":1_10" function="internal">
        <lane id=":1_10_0" index="0" speed="6.51" length="9.03" shape="214.80,289.60 215.15,292.05 216.20,293.80 217.95,294.85 220.40,295.20"/>
    </edge>
    <edge id=":1_11" function="internal">
        <lane id=":1_11_0" index="0" speed="13.89" length="20.80" shape="214.80,289.60 214.80,310.40"/>
        <lane id=":1_11_1" index="1" speed="13.89" length="20.80" shape="211.60,289.60 211.60,310.40"/>
    </edge>
    <edge id=":1_13" function="internal">
        <lane id=":1_13_0" index="0" speed="9.26" length="5.01" shape="211.60,289.60 210.89,294.56"/>
    </edge>
    <edge id=":1_14" function="internal">
        <lane id=":1_14_0" index="0" speed="3.65" length="1.44" shape="211.60,289.60 210.80,290.80"/>
    </edge>
    <edge id=":1_24" function="internal">
        <lane id=":1_24_0" index="0" speed="9.26" length="14.34" shape="210.89,294.56 210.85,294.85 208.60,298.60 204.85,300.85 199.60,301.60"/>
    </edge>
    <edge id=":1_25" function="internal">
        <lane id=":1_25_0" index="0" speed="3.65" length="3.23" shape="210.80,290.80 210.00,291.20 209.20,290.80 208.40,289.60"/>
    </edge>
    <edge id=":1_15" function="internal">
        <lane id=":1_15_0" index="0" speed="6.51" length="9.03" shape="199.60,295.20 202.05,294.85 203.80,293.80 204.85,292.05 205.20,289.60"/>
    </edge>
    <edge id=":1_16" function="internal">
        <lane id=":1_16_0" index="0" speed="13.89" length="20.80" shape="199.60,295.20 220.40,295.20"/>
        <lane id=":1_16_1" index="1" speed="13.89" length="20.80" shape="199.60,298.40 220.40,298.40"/>
    </edge>
    <edge id=":1_18" function="internal">
        <lane id=":1_18_0" index="0" speed="9.26" length="5.01" shape="199.60,298.40 204.56,299.11"/>
    </edge>
    <edge id=":1_19" function="internal">
        <lane id=":1_19_0" index="0" speed="3.65" length="1.44" shape="199.60,298.40 200.80,299.20"/>
    </edge>
    <edge id=":1_26" function="internal">
        <lane id=":1_26_0" index="0" speed="9.26" length="14.34" shape="204.56,299.11 204.85,299.15 208.60,301.40 210.85,305.15 211.60,310.40"/>
    </edge>
    <edge id=":1_27" function="internal">
        <lane id=":1_27_0" index="0" speed="3.65" length="3.23" shape="200.80,299.20 201.20,300.00 200.80,300.80 199.60,301.60"/>
    </edge>
    <edge id=":10_0" function="internal">
        <lane id=":10_0_0" index="0" speed="7.33" length="11.73" shape="175.20,310.40 174.85,306.55 173.80,303.80 172.05,302.15 169.60,301.60"/>
    </edge>
    <edge id=":10_1" function="internal">
        <lane id=":10_1_0" index="0" speed="13.89" length="32.17" shape="175.20,310.40 176.15,304.03 178.99,297.32 183.73,290.26 190.36,282.85"/>
        <lane id=":10_1_1" index="1" speed="13.89" length="29.67" shape="178.40,310.40 179.29,304.67 181.96,298.55 186.40,292.03 192.62,285.11"/>
    </edge>
    <edge id=":10_3" function="internal">
        <lane id=":10_3_0" index="0" speed="10.87" length="9.12" shape="178.40,310.40 179.72,305.15 182.41,302.59"/>
    </edge>
    <edge id=":10_4" function="internal">
        <lane id=":10_4_0" index="0" speed="3.65" length="1.44" shape="178.40,310.40 179.20,309.20"/>
    </edge>
    <edge id=":10_18" function="internal">
        <lane id=":10_18_0" index="0" speed="10.87" length="17.93" shape="182.41,302.59 183.66,301.40 190.24,299.15 199.45,298.40"/>
    </edge>
    <edge id=":10_19" function="internal">
        <lane id=":10_19_0" index="0" speed="3.65" length="3.23" shape="179.20,309.20 180.00,308.80 180.80,309.20 181.60,310.40"/>
    </edge>
    <edge id=":10_5" function="internal">
        <lane id=":10_5_0" index="0" speed="9.40" length="19.96" shape="199.45,304.80 191.64,305.15 186.06,306.20 182.72,307.95 181.60,310.40"/>
    </edge>
    <edge id=":10_6" function="internal">
        <lane id=":10_6_0" index="0" speed="13.89" length="30.04" shape="199.45,304.80 191.27,304.30 182.65,303.20 174.97,302.10 169.60,301.60"/>
    </edge>
    <edge id=":10_7" function="internal">
        <lane id=":10_7_0" index="0" speed="8.14" length="2.95" shape="199.45,301.60 196.60,300.87"/>
    </edge>
    <edge id=":10_8" function="internal">
        <lane id=":10_8_0" index="0" speed="3.65" length="1.44" shape="199.45,301.60 198.25,300.80"/>
    </edge>
    <edge id=":10_20" function="internal">
        <lane id=":10_20_0" index="0" speed="8.14" length="20.62" shape="196.60,300.87 193.22,300.01 189.69,295.99 189.34,290.65 192.62,285.11"/>
    </edge>
    <edge id=":10_21" function="internal">
        <lane id=":10_21_0" index="0" speed="3.65" length="3.23" shape="198.25,300.80 197.85,300.00 198.25,299.20 199.45,298.40"/>
    </edge>
    <edge id=":10_9" function="internal">
        <lane id=":10_9_0" index="0" speed="5.47" length="9.74" shape="197.15,289.64 195.21,292.07 194.94,293.81 196.36,294.85 199.45,295.20"/>
    </edge>
    <edge id=":10_10" function="internal">
        <lane id=":10_10_0" index="0" speed="13.89" length="26.24" shape="197.15,289.64 190.35,296.77 185.49,302.60 182.57,307.15 181.60,310.40"/>
    </edge>
    <edge id=":10_11" function="internal">
        <lane id=":10_11_0" index="0" speed="13.89" length="6.67" shape="194.89,287.38 189.93,291.84"/>
    </edge>
    <edge id=":10_12" function="internal">
        <lane id=":10_12_0" index="0" speed="3.65" length="1.44" shape="194.89,287.38 193.47,287.66"/>
    </edge>
    <edge id=":10_22" function="internal">
        <lane id=":10_22_0" index="0" speed="13.89" length="22.99" shape="189.93,291.84 187.97,293.60 181.45,298.04 175.33,300.71 169.60,301.60"/>
    </edge>
    <edge id=":10_23" function="internal">
        <lane id=":10_23_0" index="0" speed="3.65" length="3.23" shape="193.47,287.66 192.62,287.38 192.34,286.53 192.62,285.11"/>
    </edge>
    <edge id=":10_13" function="internal">
        <lane id=":10_13_0" index="0" speed="13.89" length="24.66" shape="169.60,295.20 174.05,294.43 179.00,292.11 184.43,288.25 190.36,282.85"/>
    </edge>
    <edge id=":10_14" function="internal">
        <lane id=":10_14_0" index="0" speed="13.89" length="29.85" shape="169.60,295.20 199.45,295.20"/>
        <lane id=":10_14_1" index="1" speed="13.89" length="29.85" shape="169.60,298.40 199.45,298.40"/>
    </edge>
    <edge id=":10_16" function="internal">
        <lane id=":10_16_0" index="0" speed="9.26" length="6.16" shape="169.60,298.40 174.85,299.15 175.59,299.59"/>
    </edge>
    <edge id=":10_17" function="internal">
        <lane id=":10_17_0" index="0" speed="3.65" length="1.44" shape="169.60,298.40 170.80,299.20"/>
    </edge>
    <edge id=":10_24" function="internal">
        <lane id=":10_24_0" index="0" speed="9.26" length="13.19" shape="175.59,299.59 178.60,301.40 180.85,305.15 181.60,310.40"/>
    </edge>
    <edge id=":10_25" function="internal">
        <lane id=":10_25_0" index="0" speed="3.65" length="3.23" shape="170.80,299.20 171.20,300.00 170.80,300.80 169.60,301.60"/>
    </edge>
    <edge id=":1000_0" function="internal">
        <lane id=":1000_0_0" index="0" speed="5.47" length="9.74" shape="355.20,139.45 354.85,136.36 353.81,134.94 352.07,135.21 349.64,137.15"/>
    </edge>
    <edge id=":1000_1" function="internal">
        <lane id=":1000_1_0" index="0" speed="13.89" length="26.65" shape="355.20,139.45 355.20,112.80"/>
        <lane id=":1000_1_1" index="1" speed="13.89" length="26.65" shape="358.40,139.45 358.40,112.80"/>
    </edge>
    <edge id=":1000_3" function="internal">
        <lane id=":1000_3_0" index="0" speed="10.87" length="8.66" shape="358.40,139.45 359.10,130.82"/>
    </edge>
    <edge id=":1000_4" function="internal">
        <lane id=":1000_4_0" index="0" speed="3.65" length="1.44" shape="358.40,139.45 359.20,138.25"/>
    </edge>
    <edge id=":1000_19" function="internal">
        <lane id=":1000_19_0" index="0" speed="10.87" length="18.39" shape="359.10,130.82 359.15,130.24 361.40,123.66 365.15,119.72 370.40,118.40"/>
    </edge>
    <edge id=":1000_20" function="internal">
        <lane id=":1000_20_0" index="0" speed="3.65" length="3.23" shape="359.20,138.25 360.00,137.85 360.80,138.25 361.60,139.45"/>
    </edge>
    <edge id=":1000_5" function="internal">
        <lane id=":1000_5_0" index="0" speed="8.71" length="16.99" shape="370.40,124.80 367.95,125.72 366.20,128.46 365.15,133.04 364.80,139.45"/>
    </edge>
    <edge id=":1000_6" function="internal">
        <lane id=":1000_6_0" index="0" speed="13.89" length="24.66" shape="370.40,124.80 365.95,125.57 361.00,127.89 355.57,131.75 349.64,137.15"/>
        <lane id=":1000_6_1" index="1" speed="13.89" length="27.16" shape="370.40,121.60 365.31,122.43 359.78,124.92 353.80,129.07 347.38,134.89"/>
    </edge>
    <edge id=":1000_8" function="internal">
        <lane id=":1000_8_0" index="0" speed="8.67" length="2.71" shape="370.40,121.60 367.71,121.32"/>
    </edge>
    <edge id=":1000_9" function="internal">
        <lane id=":1000_9_0" index="0" speed="3.65" length="1.29" shape="370.40,121.60 369.32,120.88"/>
    </edge>
    <edge id=":1000_21" function="internal">
        <lane id=":1000_21_0" index="0" speed="8.67" length="14.14" shape="367.71,121.32 365.15,121.05 361.40,119.40 359.15,116.65 358.40,112.80"/>
    </edge>
    <edge id=":1000_22" function="internal">
        <lane id=":1000_22_0" index="0" speed="3.65" length="3.38" shape="369.32,120.88 369.20,120.80 368.80,120.00 369.20,119.20 370.40,118.40"/>
    </edge>
    <edge id=":1000_10" function="internal">
        <lane id=":1000_10_0" index="0" speed="7.33" length="11.73" shape="361.60,112.80 362.15,115.25 363.80,117.00 366.55,118.05 370.40,118.40"/>
    </edge>
    <edge id=":1000_11" function="internal">
        <lane id=":1000_11_0" index="0" speed="13.89" length="26.76" shape="361.60,112.80 362.10,117.67 363.20,124.25 364.30,131.77 364.80,139.45"/>
        <lane id=":1000_11_1" index="1" speed="13.89" length="26.76" shape="361.60,112.80 361.60,139.45"/>
    </edge>
    <edge id=":1000_13" function="internal">
        <lane id=":1000_13_0" index="0" speed="13.89" length="3.57" shape="361.60,112.80 360.88,116.30"/>
    </edge>
    <edge id=":1000_14" function="internal">
        <lane id=":1000_14_0" index="0" speed="3.65" length="1.44" shape="361.60,112.80 360.80,114.00"/>
    </edge>
    <edge id=":1000_23" function="internal">
        <lane id=":1000_23_0" index="0" speed="13.89" length="23.18" shape="360.88,116.30 360.71,117.13 358.04,122.25 353.60,128.17 347.38,134.89"/>
    </edge>
    <edge id=":1000_24" function="internal">
        <lane id=":1000_24_0" index="0" speed="3.65" length="3.23" shape="360.80,114.00 360.00,114.40 359.20,114.00 358.40,112.80"/>
    </edge>
    <edge id=":1000_15" function="internal">
        <lane id=":1000_15_0" index="0" speed="13.89" length="21.78" shape="342.85,130.36 348.25,124.63 352.11,119.80 354.43,115.85 355.20,112.80"/>
    </edge>
    <edge id=":1000_16" function="internal">
        <lane id=":1000_16_0" index="0" speed="13.89" length="29.67" shape="345.11,132.62 352.03,126.40 358.55,121.96 364.67,119.29 370.40,118.40"/>
    </edge>
    <edge id=":1000_17" function="internal">
        <lane id=":1000_17_0" index="0" speed="8.14" length="3.59" shape="345.11,132.62 348.21,130.79"/>
    </edge>
    <edge id=":1000_18" function="internal">
        <lane id=":1000_18_0" index="0" speed="3.65" length="1.44" shape="345.11,132.62 346.53,132.34"/>
    </edge>
    <edge id=":1000_25" function="internal">
        <lane id=":1000_25_0" index="0" speed="8.14" length="19.97" shape="348.21,130.79 350.65,129.34 355.99,129.69 360.01,133.22 361.60,139.45"/>
    </edge>
    <edge id=":1000_26" function="internal">
        <lane id=":1000_26_0" index="0" speed="3.65" length="3.23" shape="346.53,132.34 347.38,132.62 347.66,133.47 347.38,134.89"/>
    </edge>
    <edge id=":1002_0" function="internal">
        <lane id=":1002_0_0" index="0" speed="13.89" length="22.34" shape="88.40,217.20 89.09,213.07 91.16,208.55 94.60,203.63 99.42,198.31"/>
    </edge>
    <edge id=":1002_1" function="internal">
        <lane id=":1002_1_0" index="0" speed="9.84" length="21.99" shape="88.40,217.20 89.52,213.35 92.86,210.60 98.44,208.95 106.25,208.40"/>
    </edge>
    <edge id=":1002_2" function="internal">
        <lane id=":1002_2_0" index="0" speed="3.65" length="4.67" shape="88.40,217.20 89.20,216.00 90.00,215.60 90.80,216.00 91.60,217.20"/>
    </edge>
    <edge id=":1002_3" function="internal">
        <lane id=":1002_3_0" index="0" speed="7.97" length="14.07" shape="106.25,211.60 101.24,211.95 97.66,213.00 95.52,214.75 94.80,217.20"/>
    </edge>
    <edge id=":1002_4" function="internal">
        <lane id=":1002_4_0" index="0" speed="7.50" length="19.73" shape="106.25,211.60 100.86,210.35 97.52,207.16 96.85,202.87 99.42,198.31"/>
    </edge>
    <edge id=":1002_5" function="internal">
        <lane id=":1002_5_0" index="0" speed="3.65" length="4.67" shape="106.25,211.60 105.05,210.80 104.65,210.00 105.05,209.20 106.25,208.40"/>
    </edge>
    <edge id=":1002_6" function="internal">
        <lane id=":1002_6_0" index="0" speed="5.47" length="9.74" shape="103.95,202.84 102.01,205.27 101.74,207.01 103.16,208.05 106.25,208.40"/>
    </edge>
    <edge id=":1002_7" function="internal">
        <lane id=":1002_7_0" index="0" speed="13.66" length="17.35" shape="103.95,202.84 99.95,207.17 97.09,211.00 95.37,214.35 94.80,217.20"/>
        <lane id=":1002_7_1" index="1" speed="13.89" length="19.84" shape="101.69,200.58 97.27,205.40 94.12,209.78 92.23,213.71 91.60,217.20"/>
    </edge>
    <edge id=":1002_9" function="internal">
        <lane id=":1002_9_0" index="0" speed="3.65" length="4.67" shape="101.69,200.58 100.27,200.86 99.42,200.58 99.14,199.73 99.42,198.31"/>
    </edge>
    <edge id=":1004_0" function="internal">
        <lane id=":1004_0_0" index="0" speed="13.89" length="17.05" shape="152.13,211.60 135.07,211.60"/>
    </edge>
    <edge id=":1004_1" function="internal">
        <lane id=":1004_1_0" index="0" speed="13.89" length="2.10" shape="152.13,211.60 150.16,210.85"/>
    </edge>
    <edge id=":1004_2" function="internal">
        <lane id=":1004_2_0" index="0" speed="3.65" length="1.44" shape="152.13,211.60 150.93,210.80"/>
    </edge>
    <edge id=":1004_10" function="internal">
        <lane id=":1004_10_0" index="0" speed="13.89" length="17.03" shape="150.16,210.85 147.04,208.61 142.78,204.87 137.38,199.64"/>
    </edge>
    <edge id=":1004_11" function="internal">
        <lane id=":1004_11_0" index="0" speed="3.65" length="3.23" shape="150.93,210.80 150.53,210.00 150.93,209.20 152.13,208.40"/>
    </edge>
    <edge id=":1004_3" function="internal">
        <lane id=":1004_3_0" index="0" speed="12.73" length="15.02" shape="139.64,197.38 143.35,200.80 146.67,203.24 149.60,204.71 152.13,205.20"/>
    </edge>
    <edge id=":1004_4" function="internal">
        <lane id=":1004_4_0" index="0" speed="7.50" length="19.73" shape="139.64,197.38 142.57,202.08 142.67,206.69 140.11,210.20 135.07,211.60"/>
    </edge>
    <edge id=":1004_5" function="internal">
        <lane id=":1004_5_0" index="0" speed="3.65" length="4.67" shape="139.64,197.38 139.92,198.79 139.64,199.64 138.79,199.92 137.38,199.64"/>
    </edge>
    <edge id=":1004_6" function="internal">
        <lane id=":1004_6_0" index="0" speed="5.47" length="9.74" shape="135.07,205.20 138.17,204.85 139.58,203.81 139.32,202.07 137.38,199.64"/>
    </edge>
    <edge id=":1004_7" function="internal">
        <lane id=":1004_7_0" index="0" speed="13.89" length="17.05" shape="135.07,205.20 152.13,205.20"/>
        <lane id=":1004_7_1" index="1" speed="13.89" length="17.05" shape="135.07,208.40 152.13,208.40"/>
    </edge>
    <edge id=":1004_9" function="internal">
        <lane id=":1004_9_0" index="0" speed="3.65" length="1.44" shape="135.07,208.40 136.27,209.20"/>
    </edge>
    <edge id=":1004_12" function="internal">
        <lane id=":1004_12_0" index="0" speed="3.65" length="3.23" shape="136.27,209.20 136.67,210.00 136.27,210.80 135.07,211.60"/>
    </edge>
    <edge id=":1010_0" function="internal">
        <lane id=":1010_0_0" index="0" speed="5.47" length="9.74" shape="115.20,199.45 114.85,196.36 113.81,194.94 112.07,195.21 109.64,197.15"/>
    </edge>
    <edge id=":1010_1" function="internal">
        <lane id=":1010_1_0" index="0" speed="11.98" length="33.12" shape="115.20,199.45 116.23,188.84 119.33,181.26 124.50,176.72 131.73,175.20"/>
        <lane id=":1010_1_1" index="1" speed="11.05" length="28.00" shape="118.40,199.45 119.23,190.24 121.73,183.66 125.90,179.72 131.73,178.40"/>
    </edge>
    <edge id=":1010_3" function="internal">
        <lane id=":1010_3_0" index="0" speed="7.93" length="22.27" shape="118.40,199.45 119.69,193.14 123.02,188.90 127.60,187.66 132.62,190.36"/>
    </edge>
    <edge id=":1010_4" function="internal">
        <lane id=":1010_4_0" index="0" speed="3.65" length="4.67" shape="118.40,199.45 119.20,198.25 120.00,197.85 120.80,198.25 121.60,199.45"/>
    </edge>
    <edge id=":1010_5" function="internal">
        <lane id=":1010_5_0" index="0" speed="6.18" length="12.88" shape="130.36,192.62 127.93,190.96 126.19,191.55 125.15,194.38 124.80,199.45"/>
    </edge>
    <edge id=":1010_6" function="internal">
        <lane id=":1010_6_0" index="0" speed="10.71" length="26.26" shape="130.36,192.62 125.04,188.88 119.43,188.01 113.55,190.01 107.38,194.89"/>
    </edge>
    <edge id=":1010_7" function="internal">
        <lane id=":1010_7_0" index="0" speed="7.34" length="18.82" shape="130.36,192.62 127.09,188.03 125.96,183.41 127.37,179.83 131.73,178.40"/>
    </edge>
    <edge id=":1010_8" function="internal">
        <lane id=":1010_8_0" index="0" speed="3.65" length="4.67" shape="130.36,192.62 130.08,191.21 130.36,190.36 131.21,190.08 132.62,190.36"/>
    </edge>
    <edge id=":1010_9" function="internal">
        <lane id=":1010_9_0" index="0" speed="6.18" length="12.88" shape="131.73,181.60 128.83,182.15 128.02,183.79 129.28,186.53 132.62,190.36"/>
    </edge>
    <edge id=":1010_10" function="internal">
        <lane id=":1010_10_0" index="0" speed="10.03" length="22.90" shape="131.73,181.60 127.30,182.72 124.13,186.06 122.23,191.64 121.60,199.45"/>
    </edge>
    <edge id=":1010_11" function="internal">
        <lane id=":1010_11_0" index="0" speed="13.89" length="28.39" shape="131.73,181.60 126.06,182.43 120.11,184.92 113.88,189.07 107.38,194.89"/>
    </edge>
    <edge id=":1010_12" function="internal">
        <lane id=":1010_12_0" index="0" speed="3.65" length="4.67" shape="131.73,181.60 130.53,180.80 130.13,180.00 130.53,179.20 131.73,178.40"/>
    </edge>
    <edge id=":1010_13" function="internal">
        <lane id=":1010_13_0" index="0" speed="13.89" length="32.37" shape="105.11,192.62 113.31,185.00 120.48,179.56 126.62,176.29 131.73,175.20"/>
    </edge>
    <edge id=":1010_14" function="internal">
        <lane id=":1010_14_0" index="0" speed="11.68" length="31.41" shape="105.11,192.62 112.42,186.90 119.43,184.61 126.17,185.77 132.62,190.36"/>
    </edge>
    <edge id=":1010_15" function="internal">
        <lane id=":1010_15_0" index="0" speed="8.14" length="23.57" shape="105.11,192.62 110.65,189.34 115.99,189.69 120.01,193.22 121.60,199.45"/>
    </edge>
    <edge id=":1010_16" function="internal">
        <lane id=":1010_16_0" index="0" speed="3.65" length="4.67" shape="105.11,192.62 106.53,192.34 107.38,192.62 107.66,193.47 107.38,194.89"/>
    </edge>
    <edge id=":1132_0" function="internal">
        <lane id=":1132_0_0" index="0" speed="13.89" length="8.81" shape="244.00,364.80 241.54,364.30 240.00,363.20 238.46,362.10 236.00,361.60"/>
    </edge>
    <edge id=":1132_1" function="internal">
        <lane id=":1132_1_0" index="0" speed="13.89" length="8.00" shape="236.00,358.40 244.00,358.40"/>
    </edge>
    <edge id=":1134_0" function="internal">
        <lane id=":1134_0_0" index="0" speed="3.65" length="4.67" shape="360.00,358.40 361.20,359.20 361.60,360.00 361.20,360.80 360.00,361.60"/>
    </edge>
    <edge id=":1136_0" function="internal">
        <lane id=":1136_0_0" index="0" speed="3.65" length="4.67" shape="331.60,390.00 330.80,391.20 330.00,391.60 329.20,391.20 328.40,390.00"/>
    </edge>
    <edge id=":1142_0" function="internal">
        <lane id=":1142_0_0" index="0" speed="9.32" length="19.63" shape="427.20,274.80 423.35,273.85 420.60,271.00 418.95,266.25 418.40,259.60"/>
    </edge>
    <edge id=":1142_1" function="internal">
        <lane id=":1142_1_0" index="0" speed="6.51" length="9.03" shape="421.60,259.60 421.95,262.05 423.00,263.80 424.75,264.85 427.20,265.20"/>
        <lane id=":1142_1_1" index="1" speed="7.33" length="11.73" shape="421.60,259.60 421.95,263.45 423.00,266.20 424.75,267.85 427.20,268.40"/>
    </edge>
    <edge id=":1149_0" function="internal">
        <lane id=":1149_0_0" index="0" speed="8.41" length="15.77" shape="298.40,134.93 298.05,129.10 297.00,124.93 295.25,122.43 292.80,121.60"/>
    </edge>
    <edge id=":1149_1" function="internal">
        <lane id=":1149_1_0" index="0" speed="13.89" length="24.78" shape="298.40,134.93 298.40,110.15"/>
    </edge>
    <edge id=":1149_2" function="internal">
        <lane id=":1149_2_0" index="0" speed="7.50" length="2.74" shape="298.40,134.93 299.13,132.28"/>
    </edge>
    <edge id=":1149_3" function="internal">
        <lane id=":1149_3_0" index="0" speed="3.65" length="1.44" shape="298.40,134.93 299.20,133.73"/>
    </edge>
    <edge id=":1149_16" function="internal">
        <lane id=":1149_16_0" index="0" speed="7.50" length="16.98" shape="299.13,132.28 299.80,129.89 303.31,127.33 307.92,127.43 312.62,130.36"/>
    </edge>
    <edge id=":1149_17" function="internal">
        <lane id=":1149_17_0" index="0" speed="3.65" length="3.23" shape="299.20,133.73 300.00,133.33 300.80,133.73 301.60,134.93"/>
    </edge>
    <edge id=":1149_4" function="internal">
        <lane id=":1149_4_0" index="0" speed="5.47" length="9.74" shape="310.36,132.62 307.93,130.68 306.19,130.42 305.15,131.83 304.80,134.93"/>
    </edge>
    <edge id=":1149_5" function="internal">
        <lane id=":1149_5_0" index="0" speed="13.89" length="21.13" shape="310.36,132.62 305.13,127.80 300.46,124.36 296.35,122.29 292.80,121.60"/>
    </edge>
    <edge id=":1149_6" function="internal">
        <lane id=":1149_6_0" index="0" speed="13.89" length="26.07" shape="310.36,132.62 305.13,126.73 301.39,121.02 299.15,115.50 298.40,110.15"/>
    </edge>
    <edge id=":1149_7" function="internal">
        <lane id=":1149_7_0" index="0" speed="3.65" length="4.67" shape="310.36,132.62 310.08,131.21 310.36,130.36 311.21,130.08 312.62,130.36"/>
    </edge>
    <edge id=":1149_8" function="internal">
        <lane id=":1149_8_0" index="0" speed="13.89" length="22.60" shape="301.60,110.15 302.43,113.02 304.92,116.97 309.07,121.99 314.89,128.10"/>
    </edge>
    <edge id=":1149_9" function="internal">
        <lane id=":1149_9_0" index="0" speed="13.89" length="24.78" shape="301.60,110.15 301.60,134.93"/>
    </edge>
    <edge id=":1149_10" function="internal">
        <lane id=":1149_10_0" index="0" speed="8.56" length="5.30" shape="301.60,110.15 301.05,115.16 300.94,115.40"/>
    </edge>
    <edge id=":1149_11" function="internal">
        <lane id=":1149_11_0" index="0" speed="3.65" length="1.44" shape="301.60,110.15 300.80,111.35"/>
    </edge>
    <edge id=":1149_18" function="internal">
        <lane id=":1149_18_0" index="0" speed="8.56" length="11.08" shape="300.94,115.40 299.40,118.74 296.65,120.88 292.80,121.60"/>
    </edge>
    <edge id=":1149_19" function="internal">
        <lane id=":1149_19_0" index="0" speed="3.65" length="3.23" shape="300.80,111.35 300.00,111.75 299.20,111.35 298.40,110.15"/>
    </edge>
    <edge id=":1149_12" function="internal">
        <lane id=":1149_12_0" index="0" speed="7.19" length="11.25" shape="292.80,118.40 295.25,117.88 297.00,116.34 298.05,113.76 298.40,110.15"/>
    </edge>
    <edge id=":1149_13" function="internal">
        <lane id=":1149_13_0" index="0" speed="13.89" length="23.63" shape="292.80,118.40 296.99,119.15 301.69,121.39 306.90,125.13 312.62,130.36"/>
    </edge>
    <edge id=":1149_14" function="internal">
        <lane id=":1149_14_0" index="0" speed="9.58" length="20.80" shape="292.80,118.40 296.65,119.43 299.40,122.53 301.05,127.70 301.60,134.93"/>
    </edge>
    <edge id=":1149_15" function="internal">
        <lane id=":1149_15_0" index="0" speed="3.65" length="4.67" shape="292.80,118.40 294.00,119.20 294.40,120.00 294.00,120.80 292.80,121.60"/>
    </edge>
    <edge id=":1159_0" function="internal">
        <lane id=":1159_0_0" index="0" speed="13.89" length="26.75" shape="340.75,146.04 337.06,148.47 331.55,150.21 324.22,151.25 315.07,151.60"/>
    </edge>
    <edge id=":1159_1" function="internal">
        <lane id=":1159_1_0" index="0" speed="10.31" length="5.59" shape="338.49,143.78 333.98,146.70 333.76,146.71"/>
    </edge>
    <edge id=":1159_2" function="internal">
        <lane id=":1159_2_0" index="0" speed="3.65" length="1.44" shape="338.49,143.78 337.07,144.06"/>
    </edge>
    <edge id=":1159_11" function="internal">
        <lane id=":1159_11_0" index="0" speed="10.31" length="18.66" shape="333.76,146.71 328.97,146.99 323.43,144.63 317.38,139.64"/>
    </edge>
    <edge id=":1159_12" function="internal">
        <lane id=":1159_12_0" index="0" speed="3.65" length="3.23" shape="337.07,144.06 336.22,143.78 335.94,142.93 336.22,141.51"/>
    </edge>
    <edge id=":1159_3" function="internal">
        <lane id=":1159_3_0" index="0" speed="7.97" length="14.07" shape="321.90,135.11 325.69,138.41 328.97,140.20 331.72,140.48 333.96,139.25"/>
        <lane id=":1159_3_1" index="1" speed="9.21" length="19.14" shape="319.64,137.38 324.56,141.52 328.97,143.59 332.85,143.59 336.22,141.51"/>
    </edge>
    <edge id=":1159_5" function="internal">
        <lane id=":1159_5_0" index="0" speed="7.50" length="19.73" shape="319.64,137.38 322.57,142.08 322.67,146.69 320.11,150.20 315.07,151.60"/>
    </edge>
    <edge id=":1159_6" function="internal">