<?xml version="1.0" encoding="UTF-8"?>

<!-- generated on 2025-08-04 11:50:42.752505 by randomTrips.py v1_24_0+0000-b72eb3fabc8
<configuration>
    <net-file value="synthetic.net.xml"/>
    <output-trip-file value="synthetic.trips.xml"/>
    <trip-attributes value="departLane=&quot;best&quot; departSpeed=&quot;max&quot; departPos=&quot;random&quot;"/>
    <fringe-factor value="5.0"/>
    <seed value="123"/>
    <end value="500.0"/>
    <period value="2.75"/>
</configuration>
-->

<routes xmlns:xsi="http://www.w3.org/2001/XMLSchema-instance" xsi:noNamespaceSchemaLocation="http://sumo.dlr.de/xsd/routes_file.xsd">
    <trip id="0" depart="0.00" from="-1143" to="-1643" departLane="best" departSpeed="max" departPos="random"/>
    <trip id="1" depart="2.75" from="-3426" to="-1775" departLane="best" departSpeed="max" departPos="random"/>
    <trip id="2" depart="5.50" from="459" to="-1160" departLane="best" departSpeed="max" departPos="random"/>
    <trip id="3" depart="8.25" from="-597" to="-599" departLane="best" departSpeed="max" departPos="random"/>
    <trip id="4" depart="11.00" from="3073" to="-2144" departLane="best" departSpeed="max" departPos="random"/>
    <trip id="5" depart="13.75" from="-3187" to="-601" departLane="best" departSpeed="max" departPos="random"/>
    <trip id="6" depart="16.50" from="-2365" to="-1001" departLane="best" departSpeed="max" departPos="random"/>
    <trip id="7" depart="19.25" from="-3448" to="-1643" departLane="best" departSpeed="max" departPos="random"/>
    <trip id="8" depart="22.00" from="-883" to="-1610" departLane="best" departSpeed="max" departPos="random"/>
    <trip id="9" depart="24.75" from="-2968" to="1143" departLane="best" departSpeed="max" departPos="random"/>
    <trip id="10" depart="27.50" from="463" to="-17" departLane="best" departSpeed="max" departPos="random"/>
    <trip id="11" depart="30.25" from="-177" to="3312" departLane="best" departSpeed="max" departPos="random"/>
    <trip id="12" depart="33.00" from="-1135" to="5" departLane="best" departSpeed="max" departPos="random"/>
    <trip id="13" depart="35.75" from="-742" to="-33" departLane="best" departSpeed="max" departPos="random"/>
    <trip id="14" depart="38.50" from="2846" to="3304" departLane="best" departSpeed="max" departPos="random"/>
    <trip id="15" depart="41.25" from="-3189" to="3426" departLane="best" departSpeed="max" departPos="random"/>
    <trip id="16" depart="44.00" from="-2131" to="2140" departLane="best" departSpeed="max" departPos="random"/>
    <trip id="17" depart="46.75" from="-589" to="343" departLane="best" departSpeed="max" departPos="random"/>
    <trip id="18" depart="49.50" from="-2968" to="1001" departLane="best" departSpeed="max" departPos="random"/>
    <trip id="19" depart="52.25" from="218" to="1621" departLane="best" departSpeed="max" departPos="random"/>
    <trip id="20" depart="55.00" from="1632" to="2363" departLane="best" departSpeed="max" departPos="random"/>
    <trip id="21" depart="57.75" from="1504" to="45" departLane="best" departSpeed="max" departPos="random"/>
    <trip id="22" depart="60.50" from="-3461" to="2503" departLane="best" departSpeed="max" departPos="random"/>
    <trip id="23" depart="63.25" from="-3304" to="-1146" departLane="best" departSpeed="max" departPos="random"/>
    <trip id="24" depart="66.00" from="2131" to="-2255" departLane="best" departSpeed="max" departPos="random"/>
    <trip id="25" depart="68.75" from="28" to="572" departLane="best" departSpeed="max" departPos="random"/>
    <trip id="26" depart="71.50" from="1386" to="-224" departLane="best" departSpeed="max" departPos="random"/>
    <trip id="27" depart="74.25" from="-3187" to="-893" departLane="best" departSpeed="max" departPos="random"/>
    <trip id="28" depart="77.00" from="-1175" to="1146" departLane="best" departSpeed="max" departPos="random"/>
    <trip id="29" depart="79.75" from="-740" to="-602" departLane="best" departSpeed="max" departPos="random"/>
    <trip id="30" depart="82.50" from="-2017" to="-1643" departLane="best" departSpeed="max" departPos="random"/>
    <trip id="31" depart="85.25" from="1143" to="-11" departLane="best" departSpeed="max" departPos="random"/>
    <trip id="32" depart="88.00" from="-3197" to="-2832" departLane="best" departSpeed="max" departPos="random"/>
    <trip id="33" depart="90.75" from="-595" to="3072" departLane="best" departSpeed="max" departPos="random"/>
    <trip id="34" depart="93.50" from="5" to="2363" departLane="best" departSpeed="max" departPos="random"/>
    <trip id="35" depart="96.25" from="883" to="739" departLane="best" departSpeed="max" departPos="random"/>
    <trip id="36" depart="99.00" from="1144" to="-2846" departLane="best" departSpeed="max" departPos="random"/>
    <trip id="37" depart="101.75" from="-3461" to="-2254" departLane="best" departSpeed="max" departPos="random"/>
    <trip id="38" depart="104.50" from="883" to="1139" departLane="best" departSpeed="max" departPos="random"/>
    <trip id="39" depart="107.25" from="2130" to="-1169" departLane="best" departSpeed="max" departPos="random"/>
    <trip id="40" depart="110.00" from="-17" to="-2367" departLane="best" departSpeed="max" departPos="random"/>
    <trip id="41" depart="112.75" from="-2479" to="-721" departLane="best" departSpeed="max" departPos="random"/>
    <trip id="42" depart="115.50" from="-2503" to="1137" departLane="best" departSpeed="max" departPos="random"/>
    <trip id="43" depart="118.25" from="-3438" to="-178" departLane="best" departSpeed="max" departPos="random"/>
    <trip id="44" depart="121.00" from="-1150" to="-723" departLane="best" departSpeed="max" departPos="random"/>
    <trip id="45" depart="123.75" from="-1504" to="1137" departLane="best" departSpeed="max" departPos="random"/>
    <trip id="46" depart="126.50" from="-1011" to="1759" departLane="best" departSpeed="max" departPos="random"/>
    <trip id="47" depart="129.25" from="-1175" to="2832" departLane="best" departSpeed="max" departPos="random"/>
    <trip id="48" depart="132.00" from="-3426" to="869" departLane="best" departSpeed="max" departPos="random"/>
    <trip id="49" depart="134.75" from="-25" to="1278" departLane="best" departSpeed="max" departPos="random"/>
    <trip id="50" depart="137.50" from="2130" to="-601" departLane="best" departSpeed="max" departPos="random"/>
    <trip id="51" depart="140.25" from="-3197" to="2363" departLane="best" departSpeed="max" departPos="random"/>
    <trip id="52" depart="143.00" from="742" to="39" departLane="best" departSpeed="max" departPos="random"/>
    <trip id="53" depart="145.75" from="-3438" to="2968" departLane="best" departSpeed="max" departPos="random"/>
    <trip id="54" depart="148.50" from="1617" to="-750" departLane="best" departSpeed="max" departPos="random"/>
    <trip id="55" depart="151.25" from="-2254" to="-1631" departLane="best" departSpeed="max" departPos="random"/>
    <trip id="56" depart="154.00" from="343" to="-1396" departLane="best" departSpeed="max" departPos="random"/>
    <trip id="57" depart="156.75" from="-578" to="177" departLane="best" departSpeed="max" departPos="random"/>
    <trip id="58" depart="159.50" from="-1773" to="2499" departLane="best" departSpeed="max" departPos="random"/>
    <trip id="59" depart="162.25" from="578" to="331" departLane="best" departSpeed="max" departPos="random"/>
    <trip id="60" depart="165.00" from="-3312" to="-1989" departLane="best" departSpeed="max" departPos="random"/>
    <trip id="61" depart="167.75" from="746" to="1631" departLane="best" departSpeed="max" departPos="random"/>
    <trip id="62" depart="170.50" from="1144" to="3426" departLane="best" departSpeed="max" departPos="random"/>
    <trip id="63" depart="173.25" from="-3312" to="-1504" departLane="best" departSpeed="max" departPos="random"/>
    <trip id="64" depart="176.00" from="-1755" to="2503" departLane="best" departSpeed="max" departPos="random"/>
    <trip id="65" depart="178.75" from="-3197" to="3461" departLane="best" departSpeed="max" departPos="random"/>
    <trip id="66" depart="181.50" from="204" to="854" departLane="best" departSpeed="max" departPos="random"/>
    <trip id="67" depart="184.25" from="1607" to="-464" departLane="best" departSpeed="max" departPos="random"/>
    <trip id="68" depart="187.00" from="2363" to="-1145" departLane="best" departSpeed="max" departPos="random"/>
    <trip id="69" depart="189.75" from="-586" to="3461" departLane="best" departSpeed="max" departPos="random"/>
    <trip id="70" depart="192.50" from="-5" to="-204" departLane="best" departSpeed="max" departPos="random"/>
    <trip id="71" depart="195.25" from="-453" to="1775" departLane="best" departSpeed="max" departPos="random"/>
    <trip id="72" depart="198.00" from="-3304" to="451" departLane="best" departSpeed="max" departPos="random"/>
    <trip id="73" depart="200.75" from="-3188" to="-333" departLane="best" departSpeed="max" departPos="random"/>
    <trip id="74" depart="203.50" from="-459" to="-2499" departLane="best" departSpeed="max" departPos="random"/>
    <trip id="75" depart="206.25" from="-2968" to="1001" departLane="best" departSpeed="max" departPos="random"/>
    <trip id="76" depart="209.00" from="601" to="-1632" departLane="best" departSpeed="max" departPos="random"/>
    <trip id="77" depart="211.75" from="-212" to="-2479" departLane="best" departSpeed="max" departPos="random"/>
    <trip id="78" depart="214.50" from="893" to="45" departLane="best" departSpeed="max" departPos="random"/>
    <trip id="79" depart="217.25" from="-208" to="1989" departLane="best" departSpeed="max" departPos="random"/>
    <trip id="80" depart="220.00" from="-1396" to="-587" departLane="best" departSpeed="max" departPos="random"/>
    <trip id="81" depart="222.75" from="-3189" to="177" departLane="best" departSpeed="max" departPos="random"/>
    <trip id="82" depart="225.50" from="595" to="343" departLane="best" departSpeed="max" departPos="random"/>
    <trip id="83" depart="228.25" from="-595" to="3312" departLane="best" departSpeed="max" departPos="random"/>
    <trip id="84" depart="231.00" from="-3461" to="3177" departLane="best" departSpeed="max" departPos="random"/>
    <trip id="85" depart="233.75" from="2252" to="-3188" departLane="best" departSpeed="max" departPos="random"/>
    <trip id="86" depart="236.50" from="2832" to="2017" departLane="best" departSpeed="max" departPos="random"/>
    <trip id="87" depart="239.25" from="-3461" to="-997" departLane="best" departSpeed="max" departPos="random"/>
    <trip id="88" depart="242.00" from="-220" to="1617" departLane="best" departSpeed="max" departPos="random"/>
    <trip id="89" depart="244.75" from="-1633" to="228" departLane="best" departSpeed="max" departPos="random"/>
    <trip id="90" depart="247.50" from="455" to="3312" departLane="best" departSpeed="max" departPos="random"/>
    <trip id="91" depart="250.25" from="1003" to="1610" departLane="best" departSpeed="max" departPos="random"/>
    <trip id="92" depart="253.00" from="17" to="-194" departLane="best" departSpeed="max" departPos="random"/>
    <trip id="93" depart="255.75" from="-1143" to="3457" departLane="best" departSpeed="max" departPos="random"/>
    <trip id="94" depart="258.50" from="-33" to="2503" departLane="best" departSpeed="max" departPos="random"/>
    <trip id="95" depart="261.25" from="-3438" to="-727" departLane="best" departSpeed="max" departPos="random"/>
    <trip id="96" depart="264.00" from="220" to="-614" departLane="best" departSpeed="max" departPos="random"/>
    <trip id="97" depart="266.75" from="2131" to="3438" departLane="best" departSpeed="max" departPos="random"/>
    <trip id="98" depart="269.50" from="-2017" to="750" departLane="best" departSpeed="max" departPos="random"/>
    <trip id="99" depart="272.25" from="-1150" to="1135" departLane="best" departSpeed="max" departPos="random"/>
    <trip id="100" depart="275.00" from="-453" to="3448" departLane="best" departSpeed="max" departPos="random"/>
    <trip id="101" depart="277.75" from="-2009" to="193" departLane="best" departSpeed="max" departPos="random"/>
    <trip id="102" depart="280.50" from="-3304" to="587" departLane="best" departSpeed="max" departPos="random"/>
    <trip id="103" depart="283.25" from="-1632" to="-33" departLane="best" departSpeed="max" departPos="random"/>
    <trip id="104" depart="286.00" from="2713" to="-593" departLane="best" departSpeed="max" departPos="random"/>
    <trip id="105" depart="288.75" from="608" to="-1280" departLane="best" departSpeed="max" departPos="random"/>
    <trip id="106" depart="291.50" from="-3312" to="-1775" departLane="best" departSpeed="max" departPos="random"/>
    <trip id="107" depart="294.25" from="-742" to="727" departLane="best" departSpeed="max" departPos="random"/>
    <trip id="108" depart="297.00" from="-3" to="2471" departLane="best" departSpeed="max" departPos="random"/>
    <trip id="109" depart="299.75" from="-2503" to="1137" departLane="best" departSpeed="max" departPos="random"/>
    <trip id="110" depart="302.50" from="-740" to="-3073" departLane="best" departSpeed="max" departPos="random"/>
    <trip id="111" depart="305.25" from="1643" to="1617" departLane="best" departSpeed="max" departPos="random"/>
    <trip id="112" depart="308.00" from="463" to="-343" departLane="best" departSpeed="max" departPos="random"/>
    <trip id="113" depart="310.75" from="720" to="-2255" departLane="best" departSpeed="max" departPos="random"/>
    <trip id="114" depart="313.50" from="-1135" to="2503" departLane="best" departSpeed="max" departPos="random"/>
    <trip id="115" depart="316.25" from="1991" to="1386" departLane="best" departSpeed="max" departPos="random"/>
    <trip id="116" depart="319.00" from="-1137" to="997" departLane="best" departSpeed="max" departPos="random"/>
    <trip id="117" depart="321.75" from="-177" to="3461" departLane="best" departSpeed="max" departPos="random"/>
    <trip id="118" depart="324.50" from="45" to="-2819" departLane="best" departSpeed="max" departPos="random"/>
    <trip id="119" depart="327.25" from="3189" to="1161" departLane="best" departSpeed="max" departPos="random"/>
    <trip id="120" depart="330.00" from="455" to="449" departLane="best" departSpeed="max" departPos="random"/>
    <trip id="121" depart="332.75" from="224" to="-451" departLane="best" departSpeed="max" departPos="random"/>
    <trip id="122" depart="335.50" from="-750" to="855" departLane="best" departSpeed="max" departPos="random"/>
    <trip id="123" depart="338.25" from="-2968" to="-879" departLane="best" departSpeed="max" departPos="random"/>
    <trip id="124" depart="341.00" from="1633" to="-1504" departLane="best" departSpeed="max" departPos="random"/>
    <trip id="125" depart="343.75" from="-2477" to="-220" departLane="best" departSpeed="max" departPos="random"/>
    <trip id="126" depart="346.50" from="-3438" to="1135" departLane="best" departSpeed="max" departPos="random"/>
    <trip id="127" depart="349.25" from="1003" to="1611" departLane="best" departSpeed="max" departPos="random"/>
    <trip id="128" depart="352.00" from="-194" to="-1175" departLane="best" departSpeed="max" departPos="random"/>
    <trip id="129" depart="354.75" from="-587" to="3304" departLane="best" departSpeed="max" departPos="random"/>
    <trip id="130" depart="357.50" from="593" to="3449" departLane="best" departSpeed="max" departPos="random"/>
    <trip id="131" depart="360.25" from="-2846" to="3457" departLane="best" departSpeed="max" departPos="random"/>
    <trip id="132" depart="363.00" from="-3457" to="-39" departLane="best" departSpeed="max" departPos="random"/>
    <trip id="133" depart="365.75" from="-1607" to="1138" departLane="best" departSpeed="max" departPos="random"/>
    <trip id="134" depart="368.50" from="-602" to="-3449" departLane="best" departSpeed="max" departPos="random"/>
    <trip id="135" depart="371.25" from="-208" to="602" departLane="best" departSpeed="max" departPos="random"/>
    <trip id="136" depart="374.00" from="-1161" to="602" departLane="best" departSpeed="max" departPos="random"/>
    <trip id="137" depart="376.75" from="-3426" to="3312" departLane="best" departSpeed="max" departPos="random"/>
    <trip id="138" depart="379.50" from="-1621" to="1993" departLane="best" departSpeed="max" departPos="random"/>
    <trip id="139" depart="382.25" from="2140" to="1137" departLane="best" departSpeed="max" departPos="random"/>
    <trip id="140" depart="385.00" from="-3197" to="1610" departLane="best" departSpeed="max" departPos="random"/>
    <trip id="141" depart="387.75" from="-208" to="-2712" departLane="best" departSpeed="max" departPos="random"/>
    <trip id="142" depart="390.50" from="-2363" to="-1160" departLane="best" departSpeed="max" departPos="random"/>
    <trip id="143" depart="393.25" from="5" to="-1611" departLane="best" departSpeed="max" departPos="random"/>
    <trip id="144" depart="396.00" from="593" to="-1011" departLane="best" departSpeed="max" departPos="random"/>
    <trip id="145" depart="398.75" from="1280" to="178" departLane="best" departSpeed="max" departPos="random"/>
    <trip id="146" depart="401.50" from="-1137" to="602" departLane="best" departSpeed="max" departPos="random"/>
    <trip id="147" depart="404.25" from="1989" to="3461" departLane="best" departSpeed="max" departPos="random"/>
    <trip id="148" depart="407.00" from="-3448" to="-453" departLane="best" departSpeed="max" departPos="random"/>
    <trip id="149" depart="409.75" from="-2017" to="-1783" departLane="best" departSpeed="max" departPos="random"/>
    <trip id="150" depart="412.50" from="1608" to="3438" departLane="best" departSpeed="max" departPos="random"/>
    <trip id="151" depart="415.25" from="-2140" to="-1144" departLane="best" departSpeed="max" departPos="random"/>
    <trip id="152" depart="418.00" from="-33" to="-2139" departLane="best" departSpeed="max" departPos="random"/>
    <trip id="153" depart="420.75" from="-224" to="-2821" departLane="best" departSpeed="max" departPos="random"/>
    <trip id="154" depart="423.50" from="15" to="1137" departLane="best" departSpeed="max" departPos="random"/>
    <trip id="155" depart="426.25" from="-721" to="-883" departLane="best" departSpeed="max" departPos="random"/>
    <trip id="156" depart="429.00" from="869" to="1611" departLane="best" departSpeed="max" departPos="random"/>
    <trip id="157" depart="431.75" from="-1137" to="-208" departLane="best" departSpeed="max" departPos="random"/>
    <trip id="158" depart="434.50" from="1989" to="572" departLane="best" departSpeed="max" departPos="random"/>
    <trip id="159" depart="437.25" from="-1633" to="1160" departLane="best" departSpeed="max" departPos="random"/>
    <trip id="160" depart="440.00" from="3189" to="184" departLane="best" departSpeed="max" departPos="random"/>
    <trip id="161" depart="442.75" from="-1135" to="1633" departLane="best" departSpeed="max" departPos="random"/>
    <trip id="162" depart="445.50" from="-2819" to="-2713" departLane="best" departSpeed="max" departPos="random"/>
    <trip id="163" depart="448.25" from="601" to="-1775" departLane="best" departSpeed="max" departPos="random"/>
    <trip id="164" depart="451.00" from="2831" to="3197" departLane="best" departSpeed="max" departPos="random"/>
    <trip id="165" depart="453.75" from="-879" to="-595" departLane="best" departSpeed="max" departPos="random"/>
    <trip id="166" depart="456.50" from="-1386" to="2503" departLane="best" departSpeed="max" departPos="random"/>
    <trip id="167" depart="459.25" from="723" to="-2254" departLane="best" departSpeed="max" departPos="random"/>
    <trip id="168" depart="462.00" from="-1633" to="1280" departLane="best" departSpeed="max" departPos="random"/>
    <trip id="169" depart="464.75" from="3073" to="-1003" departLane="best" departSpeed="max" departPos="random"/>
    <trip id="170" depart="467.50" from="228" to="-1643" departLane="best" departSpeed="max" departPos="random"/>
    <trip id="171" depart="470.25" from="-1137" to="-2126" departLane="best" departSpeed="max" departPos="random"/>
    <trip id="172" depart="473.00" from="-3453" to="601" departLane="best" departSpeed="max" departPos="random"/>
    <trip id="173" depart="475.75" from="1396" to="-15" departLane="best" departSpeed="max" departPos="random"/>
    <trip id="174" depart="478.50" from="-178" to="1160" departLane="best" departSpeed="max" departPos="random"/>
    <trip id="175" depart="481.25" from="-1504" to="2503" departLane="best" departSpeed="max" departPos="random"/>
    <trip id="176" depart="484.00" from="-3197" to="721" departLane="best" departSpeed="max" departPos="random"/>
    <trip id="177" depart="486.75" from="2713" to="3438" departLane="best" departSpeed="max" departPos="random"/>
    <trip id="178" depart="489.50" from="-2254" to="1137" departLane="best" departSpeed="max" departPos="random"/>
    <trip id="179" depart="492.25" from="1608" to="-1649" departLane="best" departSpeed="max" departPos="random"/>
    <trip id="180" depart="495.00" from="-1011" to="-597" departLane="best" departSpeed="max" departPos="random"/>
    <trip id="181" depart="497.75" from="-3426" to="3312" departLane="best" departSpeed="max" departPos="random"/>
</routes>
