<?xml version="1.0" encoding="UTF-8"?>

<!-- generated on 2025-08-14 15:21:26.247157 by randomTrips.py v1_24_0+0000-b72eb3fabc8
<configuration>
    <net-file value="map.net.xml"/>
    <output-trip-file value="trips_random_heavy.trips.xml"/>
    <trip-attributes value="departLane=&quot;best&quot; departSpeed=&quot;max&quot; departPos=&quot;random&quot;"/>
    <fringe-factor value="5.0"/>
    <seed value="404"/>
    <end value="5000.0"/>
    <period value="1.5"/>
    <random-depart value="True"/>
</configuration>
-->

<routes xmlns:xsi="http://www.w3.org/2001/XMLSchema-instance" xsi:noNamespaceSchemaLocation="http://sumo.dlr.de/xsd/routes_file.xsd">
    <trip id="0" depart="1.50" from="-384971140#0" to="-864558904#0" departLane="best" departSpeed="max" departPos="random"/>
    <trip id="1" depart="5.50" from="4818835#0" to="-149723892#2" departLane="best" departSpeed="max" departPos="random"/>
    <trip id="2" depart="6.50" from="741042671#1" to="-3428809#4" departLane="best" departSpeed="max" departPos="random"/>
    <trip id="3" depart="7.50" from="-1248871134" to="149399187#0" departLane="best" departSpeed="max" departPos="random"/>
    <trip id="4" depart="11.50" from="-503190615#0" to="428036775#2" departLane="best" departSpeed="max" departPos="random"/>
    <trip id="5" depart="12.00" from="149723892#1" to="-90051672#0" departLane="best" departSpeed="max" departPos="random"/>
    <trip id="6" depart="12.00" from="-159700888#2" to="-415869887" departLane="best" departSpeed="max" departPos="random"/>
    <trip id="7" depart="14.00" from="159234717#1" to="3428809#4" departLane="best" departSpeed="max" departPos="random"/>
    <trip id="8" depart="14.00" from="-362075987" to="3924804#3" departLane="best" departSpeed="max" departPos="random"/>
    <trip id="9" depart="16.50" from="-4295990#1" to="-36894772#2" departLane="best" departSpeed="max" departPos="random"/>
    <trip id="10" depart="18.50" from="-4212342" to="160611126#5" departLane="best" departSpeed="max" departPos="random"/>
    <trip id="11" depart="19.50" from="-137962150#2" to="-149723892#2" departLane="best" departSpeed="max" departPos="random"/>
    <trip id="12" depart="24.00" from="159234717#2" to="1234351298" departLane="best" departSpeed="max" departPos="random"/>
    <trip id="13" depart="26.00" from="159908039#3" to="-384971140#3" departLane="best" departSpeed="max" departPos="random"/>
    <trip id="14" depart="27.00" from="310639257#1" to="158008428#1" departLane="best" departSpeed="max" departPos="random"/>
    <trip id="15" depart="27.50" from="1301927136#1" to="-159234717#0" departLane="best" departSpeed="max" departPos="random"/>
    <trip id="16" depart="28.00" from="261420059#0" to="-1082513143#4" departLane="best" departSpeed="max" departPos="random"/>
    <trip id="17" depart="28.00" from="-422738800#1" to="477157312#0" departLane="best" departSpeed="max" departPos="random"/>
    <trip id="18" depart="29.50" from="-36966883" to="-503190615#2" departLane="best" departSpeed="max" departPos="random"/>
    <trip id="19" depart="31.00" from="-68992847#1" to="422738802#2" departLane="best" departSpeed="max" departPos="random"/>
    <trip id="20" depart="31.00" from="1157505360" to="3100654#1" departLane="best" departSpeed="max" departPos="random"/>
    <trip id="21" depart="31.50" from="149723891" to="151549312" departLane="best" departSpeed="max" departPos="random"/>
    <trip id="22" depart="34.00" from="384971139" to="-1133544956" departLane="best" departSpeed="max" departPos="random"/>
    <trip id="23" depart="34.50" from="3428809#3" to="-326502793#3" departLane="best" departSpeed="max" departPos="random"/>
    <trip id="24" depart="35.00" from="3527424#5" to="-519956415#1" departLane="best" departSpeed="max" departPos="random"/>
    <trip id="25" depart="36.00" from="-4295992#0" to="-159902717" departLane="best" departSpeed="max" departPos="random"/>
    <trip id="26" depart="36.00" from="-1307793411#1" to="1234351125#1" departLane="best" departSpeed="max" departPos="random"/>
    <trip id="27" depart="36.00" from="668571648#2" to="261423864#1" departLane="best" departSpeed="max" departPos="random"/>
    <trip id="28" depart="37.00" from="668571648#1" to="90051672#1" departLane="best" departSpeed="max" departPos="random"/>
    <trip id="29" depart="39.50" from="-159234717#0" to="149399190" departLane="best" departSpeed="max" departPos="random"/>
    <trip id="30" depart="40.50" from="1133544957" to="149723892#1" departLane="best" departSpeed="max" departPos="random"/>
    <trip id="31" depart="43.00" from="230765089#1" to="-1157505352" departLane="best" departSpeed="max" departPos="random"/>
    <trip id="32" depart="44.00" from="3454368#1" to="999241257#5" departLane="best" departSpeed="max" departPos="random"/>
    <trip id="33" depart="44.50" from="4818835#0" to="999241257#3" departLane="best" departSpeed="max" departPos="random"/>
    <trip id="34" depart="46.50" from="-160611126#5" to="-384971139" departLane="best" departSpeed="max" departPos="random"/>
    <trip id="35" depart="47.50" from="1157505367" to="1135899069" departLane="best" departSpeed="max" departPos="random"/>
    <trip id="36" depart="48.50" from="4818835#0" to="4818835#1" departLane="best" departSpeed="max" departPos="random"/>
    <trip id="37" depart="50.00" from="261750866" to="-384971140#1" departLane="best" departSpeed="max" departPos="random"/>
    <trip id="38" depart="55.00" from="-56057361#1" to="461183387#1" departLane="best" departSpeed="max" departPos="random"/>
    <trip id="39" depart="56.50" from="261750866" to="-326502793#0" departLane="best" departSpeed="max" departPos="random"/>
    <trip id="40" depart="57.50" from="181581823" to="184170266#0" departLane="best" departSpeed="max" departPos="random"/>
    <trip id="41" depart="58.50" from="-1082513142#2" to="689346035#1" departLane="best" departSpeed="max" departPos="random"/>
    <trip id="42" depart="59.50" from="428036770#0" to="-566409374#0" departLane="best" departSpeed="max" departPos="random"/>
    <trip id="43" depart="62.00" from="702188965" to="326502793#3" departLane="best" departSpeed="max" departPos="random"/>
    <trip id="44" depart="63.00" from="3454369#0" to="-4087296" departLane="best" departSpeed="max" departPos="random"/>
    <trip id="45" depart="64.00" from="-1234351189#0" to="-864558904#0" departLane="best" departSpeed="max" departPos="random"/>
    <trip id="46" depart="65.00" from="-3577472#1" to="461183387#2" departLane="best" departSpeed="max" departPos="random"/>
    <trip id="47" depart="65.00" from="149399210#1" to="-261423864#1" departLane="best" departSpeed="max" departPos="random"/>
    <trip id="48" depart="65.50" from="-261418601" to="261420059#0" departLane="best" departSpeed="max" departPos="random"/>
    <trip id="49" depart="66.00" from="160803847" to="179310598#2" departLane="best" departSpeed="max" departPos="random"/>
    <trip id="50" depart="66.50" from="342317279" to="1082513141" departLane="best" departSpeed="max" departPos="random"/>
    <trip id="51" depart="68.00" from="-321883383#2" to="-1157505351" departLane="best" departSpeed="max" departPos="random"/>
    <trip id="52" depart="68.00" from="149723892#1" to="149399187#0" departLane="best" departSpeed="max" departPos="random"/>
    <trip id="53" depart="70.00" from="3454180#2" to="-4059030#1" departLane="best" departSpeed="max" departPos="random"/>
    <trip id="54" depart="70.50" from="-428036775#2" to="-864558904#0" departLane="best" departSpeed="max" departPos="random"/>
    <trip id="55" depart="77.50" from="86548565#0" to="-137962150#2" departLane="best" departSpeed="max" departPos="random"/>
    <trip id="56" depart="78.50" from="477157312#0" to="3924804#3" departLane="best" departSpeed="max" departPos="random"/>
    <trip id="57" depart="80.00" from="86548565#0" to="689346035#1" departLane="best" departSpeed="max" departPos="random"/>
    <trip id="58" depart="83.00" from="3527440#0" to="4818815" departLane="best" departSpeed="max" departPos="random"/>
    <trip id="59" depart="84.50" from="-4295992#2" to="150078330" departLane="best" departSpeed="max" departPos="random"/>
    <trip id="60" depart="84.50" from="1135899069" to="668571648#1" departLane="best" departSpeed="max" departPos="random"/>
    <trip id="61" depart="87.50" from="-519956418#1" to="261418601" departLane="best" departSpeed="max" departPos="random"/>
    <trip id="62" depart="89.50" from="1082513142#1" to="149399187#0" departLane="best" departSpeed="max" departPos="random"/>
    <trip id="63" depart="89.50" from="-3454180#2" to="-3428809#4" departLane="best" departSpeed="max" departPos="random"/>
    <trip id="64" depart="92.50" from="4818835#0" to="4212342" departLane="best" departSpeed="max" departPos="random"/>
    <trip id="65" depart="93.00" from="3428809#1" to="999241257#5" departLane="best" departSpeed="max" departPos="random"/>
    <trip id="66" depart="96.00" from="149399206#1" to="3577472#1" departLane="best" departSpeed="max" departPos="random"/>
    <trip id="67" depart="97.50" from="-461183387#2" to="1082513143#3" departLane="best" departSpeed="max" departPos="random"/>
    <trip id="68" depart="97.50" from="159908039#2" to="689346034" departLane="best" departSpeed="max" departPos="random"/>
    <trip id="69" depart="97.50" from="-160611126#1" to="-519956418#0" departLane="best" departSpeed="max" departPos="random"/>
    <trip id="70" depart="97.50" from="159902718#2" to="-1307793411#1" departLane="best" departSpeed="max" departPos="random"/>
    <trip id="71" depart="100.50" from="-1082513141" to="-1025860967#0" departLane="best" departSpeed="max" departPos="random"/>
    <trip id="72" depart="101.00" from="-149723891" to="3924804#3" departLane="best" departSpeed="max" departPos="random"/>
    <trip id="73" depart="101.00" from="-519956415#1" to="342317279" departLane="best" departSpeed="max" departPos="random"/>
    <trip id="74" depart="104.00" from="-384971140#3" to="-1082513143#1" departLane="best" departSpeed="max" departPos="random"/>
    <trip id="75" depart="105.50" from="3527424#1" to="3428809#3" departLane="best" departSpeed="max" departPos="random"/>
    <trip id="76" depart="105.50" from="384971139" to="-261423864#1" departLane="best" departSpeed="max" departPos="random"/>
    <trip id="77" depart="107.00" from="536435187#1" to="1157505367" departLane="best" departSpeed="max" departPos="random"/>
    <trip id="78" depart="107.00" from="36894772#0" to="3924804#2" departLane="best" departSpeed="max" departPos="random"/>
    <trip id="79" depart="108.00" from="-428036775#2" to="-1082513143#0" departLane="best" departSpeed="max" departPos="random"/>
    <trip id="80" depart="108.50" from="-3577471#1" to="999241257#5" departLane="best" departSpeed="max" departPos="random"/>
    <trip id="81" depart="109.50" from="-36966884" to="-566409374#0" departLane="best" departSpeed="max" departPos="random"/>
    <trip id="82" depart="110.50" from="36966883" to="-261741010#1" departLane="best" departSpeed="max" departPos="random"/>
    <trip id="83" depart="120.00" from="4211633" to="-384971139" departLane="best" departSpeed="max" departPos="random"/>
    <trip id="84" depart="121.00" from="E1" to="-3428809#2" departLane="best" departSpeed="max" departPos="random"/>
    <trip id="85" depart="122.50" from="422738800#1" to="-36894772#2" departLane="best" departSpeed="max" departPos="random"/>
    <trip id="86" depart="124.50" from="1234351298" to="-415869887" departLane="best" departSpeed="max" departPos="random"/>
    <trip id="87" depart="125.00" from="-4212342" to="-4818835#0" departLane="best" departSpeed="max" departPos="random"/>
    <trip id="88" depart="126.00" from="1234351189#1" to="314456049" departLane="best" departSpeed="max" departPos="random"/>
    <trip id="89" depart="127.50" from="3100643" to="536435187#0" departLane="best" departSpeed="max" departPos="random"/>
    <trip id="90" depart="128.50" from="3924806" to="159902718#1" departLane="best" departSpeed="max" departPos="random"/>
    <trip id="91" depart="129.50" from="184170266#1" to="160803840" departLane="best" departSpeed="max" departPos="random"/>
    <trip id="92" depart="132.00" from="-999241257#2" to="999241257#5" departLane="best" departSpeed="max" departPos="random"/>
    <trip id="93" depart="133.00" from="1025127003" to="560562743" departLane="best" departSpeed="max" departPos="random"/>
    <trip id="94" depart="134.50" from="90051672#1" to="428036775#2" departLane="best" departSpeed="max" departPos="random"/>
    <trip id="95" depart="134.50" from="689346035#2" to="-3454180#0" departLane="best" departSpeed="max" departPos="random"/>
    <trip id="96" depart="135.50" from="-1301927136#1" to="-1276314566" departLane="best" departSpeed="max" departPos="random"/>
    <trip id="97" depart="136.50" from="503190615#1" to="-1301927136#0" departLane="best" departSpeed="max" departPos="random"/>
    <trip id="98" depart="142.50" from="-4295990#1" to="3454368#1" departLane="best" departSpeed="max" departPos="random"/>
    <trip id="99" depart="143.00" from="-1082513143#4" to="-999241257#3" departLane="best" departSpeed="max" departPos="random"/>
    <trip id="100" depart="144.50" from="1157505352" to="428036775#2" departLane="best" departSpeed="max" departPos="random"/>
    <trip id="101" depart="146.50" from="-68992847#1" to="49931898#1" departLane="best" departSpeed="max" departPos="random"/>
    <trip id="102" depart="149.50" from="3533995" to="-261423863#1" departLane="best" departSpeed="max" departPos="random"/>
    <trip id="103" depart="150.00" from="261741010#5" to="-4059030#1" departLane="best" departSpeed="max" departPos="random"/>
    <trip id="104" depart="150.50" from="261423864#1" to="36894772#0" departLane="best" departSpeed="max" departPos="random"/>
    <trip id="105" depart="150.50" from="-999241257#5" to="160803840" departLane="best" departSpeed="max" departPos="random"/>
    <trip id="106" depart="151.00" from="-1234351189#1" to="-708234065" departLane="best" departSpeed="max" departPos="random"/>
    <trip id="107" depart="153.50" from="428036770#0" to="-864558904#0" departLane="best" departSpeed="max" departPos="random"/>
    <trip id="108" depart="154.00" from="1234351298" to="3428809#2" departLane="best" departSpeed="max" departPos="random"/>
    <trip id="109" depart="154.50" from="310639256" to="3428809#6" departLane="best" departSpeed="max" departPos="random"/>
    <trip id="110" depart="155.00" from="-159234717#2" to="-4818835#1" departLane="best" departSpeed="max" departPos="random"/>
    <trip id="111" depart="161.50" from="-160611126#3" to="422738801#2" departLane="best" departSpeed="max" departPos="random"/>
    <trip id="112" depart="162.00" from="-261418601" to="-384971140#4" departLane="best" departSpeed="max" departPos="random"/>
    <trip id="113" depart="165.50" from="3454369#0" to="151549312" departLane="best" departSpeed="max" departPos="random"/>
    <trip id="114" depart="170.00" from="261564748#3" to="261418601" departLane="best" departSpeed="max" departPos="random"/>
    <trip id="115" depart="170.50" from="497870890" to="4059065#1" departLane="best" departSpeed="max" departPos="random"/>
    <trip id="116" depart="172.00" from="-160484291#4" to="261418601" departLane="best" departSpeed="max" departPos="random"/>
    <trip id="117" depart="176.50" from="566409374#0" to="-261750866" departLane="best" departSpeed="max" departPos="random"/>
    <trip id="118" depart="177.00" from="310639257#0" to="4570906#1" departLane="best" departSpeed="max" departPos="random"/>
    <trip id="119" depart="177.00" from="-461183387#2" to="36966883" departLane="best" departSpeed="max" departPos="random"/>
    <trip id="120" depart="177.50" from="-1082513142#1" to="261420059#1" departLane="best" departSpeed="max" departPos="random"/>
    <trip id="121" depart="178.00" from="159908039#1" to="422738800#1" departLane="best" departSpeed="max" departPos="random"/>
    <trip id="122" depart="179.00" from="-321883383#2" to="-415869887" departLane="best" departSpeed="max" departPos="random"/>
    <trip id="123" depart="179.50" from="-56057361#1" to="422738802#2" departLane="best" departSpeed="max" departPos="random"/>
    <trip id="124" depart="181.00" from="3428809#1" to="159234717#0" departLane="best" departSpeed="max" departPos="random"/>
    <trip id="125" depart="181.50" from="4059064#1" to="3454808#0" departLane="best" departSpeed="max" departPos="random"/>
    <trip id="126" depart="185.00" from="-36894772#3" to="261423862#0" departLane="best" departSpeed="max" departPos="random"/>
    <trip id="127" depart="192.50" from="4059064#1" to="-261423862#0" departLane="best" departSpeed="max" departPos="random"/>
    <trip id="128" depart="193.50" from="-159234717#0" to="160484291#3" departLane="best" departSpeed="max" departPos="random"/>
    <trip id="129" depart="195.00" from="-149723892#1" to="4211383#1" departLane="best" departSpeed="max" departPos="random"/>
    <trip id="130" depart="196.50" from="179310598#2" to="261418601" departLane="best" departSpeed="max" departPos="random"/>
    <trip id="131" depart="198.50" from="376239875" to="-261750866" departLane="best" departSpeed="max" departPos="random"/>
    <trip id="132" depart="198.50" from="-3577472#1" to="321883383#2" departLane="best" departSpeed="max" departPos="random"/>
    <trip id="133" depart="198.50" from="310639257#1" to="3454180#2" departLane="best" departSpeed="max" departPos="random"/>
    <trip id="134" depart="200.00" from="-90051672#2" to="-428036770#1" departLane="best" departSpeed="max" departPos="random"/>
    <trip id="135" depart="200.00" from="-149399201" to="3100654#2" departLane="best" departSpeed="max" departPos="random"/>
    <trip id="136" depart="202.00" from="-261741010#6" to="-384971140#1" departLane="best" departSpeed="max" departPos="random"/>
    <trip id="137" depart="203.00" from="184170266#0" to="-261741010#1" departLane="best" departSpeed="max" departPos="random"/>
    <trip id="138" depart="204.00" from="-160484291#4" to="1157505365" departLane="best" departSpeed="max" departPos="random"/>
    <trip id="139" depart="206.50" from="428021295" to="523772484" departLane="best" departSpeed="max" departPos="random"/>
    <trip id="140" depart="207.00" from="-160484291#3" to="150078330" departLane="best" departSpeed="max" departPos="random"/>
    <trip id="141" depart="208.00" from="376239874" to="321883383#2" departLane="best" departSpeed="max" departPos="random"/>
    <trip id="142" depart="211.00" from="36966883" to="4211383#0" departLane="best" departSpeed="max" departPos="random"/>
    <trip id="143" depart="211.00" from="310639256" to="149723891" departLane="best" departSpeed="max" departPos="random"/>
    <trip id="144" depart="211.50" from="689346035#1" to="310639256" departLane="best" departSpeed="max" departPos="random"/>
    <trip id="145" depart="211.50" from="-68992847#1" to="149399201" departLane="best" departSpeed="max" departPos="random"/>
    <trip id="146" depart="212.50" from="310639256" to="4059055#0" departLane="best" departSpeed="max" departPos="random"/>
    <trip id="147" depart="215.50" from="310639256" to="4059030#1" departLane="best" departSpeed="max" departPos="random"/>
    <trip id="148" depart="215.50" from="864558904#0" to="428021295" departLane="best" departSpeed="max" departPos="random"/>
    <trip id="149" depart="215.50" from="-428036775#2" to="-326502793#3" departLane="best" departSpeed="max" departPos="random"/>
    <trip id="150" depart="219.00" from="4059037" to="-1157505367" departLane="best" departSpeed="max" departPos="random"/>
    <trip id="151" depart="220.50" from="4059033#3" to="1025860967#1" departLane="best" departSpeed="max" departPos="random"/>
    <trip id="152" depart="221.00" from="261743231" to="-326502793#0" departLane="best" departSpeed="max" departPos="random"/>
    <trip id="153" depart="222.00" from="-428036774#1" to="-3527424#0" departLane="best" departSpeed="max" departPos="random"/>
    <trip id="154" depart="223.00" from="-1082513142#2" to="261741011#0" departLane="best" departSpeed="max" departPos="random"/>
    <trip id="155" depart="231.50" from="3428809#0" to="171948480" departLane="best" departSpeed="max" departPos="random"/>
    <trip id="156" depart="238.50" from="428036774#0" to="-1157505367" departLane="best" departSpeed="max" departPos="random"/>
    <trip id="157" depart="240.00" from="261423862#0" to="4935749" departLane="best" departSpeed="max" departPos="random"/>
    <trip id="158" depart="240.50" from="689346035#1" to="-261420059#2" departLane="best" departSpeed="max" departPos="random"/>
    <trip id="159" depart="241.00" from="159902718#2" to="159700888#1" departLane="best" departSpeed="max" departPos="random"/>
    <trip id="160" depart="241.50" from="863412048" to="-261420059#0" departLane="best" departSpeed="max" departPos="random"/>
    <trip id="161" depart="244.00" from="149399210#1" to="3924804#3" departLane="best" departSpeed="max" departPos="random"/>
    <trip id="162" depart="244.50" from="181581823" to="-310639257#1" departLane="best" departSpeed="max" departPos="random"/>
    <trip id="163" depart="247.50" from="-428036775#2" to="-149399201" departLane="best" departSpeed="max" departPos="random"/>
    <trip id="164" depart="248.00" from="536435187#3" to="179609886#1" departLane="best" departSpeed="max" departPos="random"/>
    <trip id="165" depart="249.00" from="863412048" to="601799190#1" departLane="best" departSpeed="max" departPos="random"/>
    <trip id="166" depart="250.00" from="36966883" to="3924804#3" departLane="best" departSpeed="max" departPos="random"/>
    <trip id="167" depart="252.50" from="566409374#0" to="1082513143#4" departLane="best" departSpeed="max" departPos="random"/>
    <trip id="168" depart="255.50" from="-321883383#2" to="-1157505367" departLane="best" departSpeed="max" departPos="random"/>
    <trip id="169" depart="255.50" from="-4212342" to="-1133544957" departLane="best" departSpeed="max" departPos="random"/>
    <trip id="170" depart="257.50" from="4211383#0" to="566409382#1" departLane="best" departSpeed="max" departPos="random"/>
    <trip id="171" depart="260.00" from="3428809#0" to="3100654#0" departLane="best" departSpeed="max" departPos="random"/>
    <trip id="172" depart="260.50" from="-321883383#1" to="422738801#1" departLane="best" departSpeed="max" departPos="random"/>
    <trip id="173" depart="262.50" from="1157505356" to="261750863#0" departLane="best" departSpeed="max" departPos="random"/>
    <trip id="174" depart="267.00" from="230765089#1" to="3428809#1" departLane="best" departSpeed="max" departPos="random"/>
    <trip id="175" depart="267.00" from="36966884" to="-342317279" departLane="best" departSpeed="max" departPos="random"/>
    <trip id="176" depart="268.50" from="261750863#0" to="-68992847#1" departLane="best" departSpeed="max" departPos="random"/>
    <trip id="177" depart="271.00" from="261564748#1" to="4211383#1" departLane="best" departSpeed="max" departPos="random"/>
    <trip id="178" depart="275.00" from="4818835#0" to="49931897" departLane="best" departSpeed="max" departPos="random"/>
    <trip id="179" depart="277.00" from="171964224#1" to="3924806" departLane="best" departSpeed="max" departPos="random"/>
    <trip id="180" depart="279.50" from="159908039#3" to="-566409374#0" departLane="best" departSpeed="max" departPos="random"/>
    <trip id="181" depart="280.00" from="4818835#0" to="261420055#1" departLane="best" departSpeed="max" departPos="random"/>
    <trip id="182" depart="280.00" from="3527424#6" to="3577472#2" departLane="best" departSpeed="max" departPos="random"/>
    <trip id="183" depart="281.50" from="159908039#3" to="261423862#0" departLane="best" departSpeed="max" departPos="random"/>
    <trip id="184" depart="287.50" from="36966884" to="261564748#0" departLane="best" departSpeed="max" departPos="random"/>
    <trip id="185" depart="288.50" from="-154343753" to="-864558904#0" departLane="best" departSpeed="max" departPos="random"/>
    <trip id="186" depart="288.50" from="-1248871134" to="149399209#0" departLane="best" departSpeed="max" departPos="random"/>
    <trip id="187" depart="289.00" from="1133544956" to="4211383#0" departLane="best" departSpeed="max" departPos="random"/>
    <trip id="188" depart="289.50" from="560562743" to="4059037" departLane="best" departSpeed="max" departPos="random"/>
    <trip id="189" depart="293.50" from="-3454180#1" to="160611126#1" departLane="best" departSpeed="max" departPos="random"/>
    <trip id="190" depart="297.50" from="376239874" to="1082513142#0" departLane="best" departSpeed="max" departPos="random"/>
    <trip id="191" depart="297.50" from="261564748#2" to="422738801#2" departLane="best" departSpeed="max" departPos="random"/>
    <trip id="192" depart="304.50" from="-4212342" to="151549312" departLane="best" departSpeed="max" departPos="random"/>
    <trip id="193" depart="306.50" from="-3100643" to="-1301927136#1" departLane="best" departSpeed="max" departPos="random"/>
    <trip id="194" depart="308.00" from="261741010#3" to="1157505358#1" departLane="best" departSpeed="max" departPos="random"/>
    <trip id="195" depart="312.00" from="863412048" to="3924804#3" departLane="best" departSpeed="max" departPos="random"/>
    <trip id="196" depart="313.50" from="-384971140#1" to="1157505358#1" departLane="best" departSpeed="max" departPos="random"/>
    <trip id="197" depart="314.00" from="566409374#0" to="36894772#0" departLane="best" departSpeed="max" departPos="random"/>
    <trip id="198" depart="317.50" from="-160611126#5" to="4295992#0" departLane="best" departSpeed="max" departPos="random"/>
    <trip id="199" depart="317.50" from="-1248871134" to="4059030#0" departLane="best" departSpeed="max" departPos="random"/>
    <trip id="200" depart="324.50" from="149399184" to="4295990#1" departLane="best" departSpeed="max" departPos="random"/>
    <trip id="201" depart="326.00" from="261741010#2" to="160484291#0" departLane="best" departSpeed="max" departPos="random"/>
    <trip id="202" depart="328.00" from="3428809#6" to="-3527424#2" departLane="best" departSpeed="max" departPos="random"/>
    <trip id="203" depart="329.50" from="49931898#1" to="-4818835#0" departLane="best" departSpeed="max" departPos="random"/>
    <trip id="204" depart="331.50" from="689346040" to="-3428809#0" departLane="best" departSpeed="max" departPos="random"/>
    <trip id="205" depart="334.00" from="-36894772#2" to="230765089#1" departLane="best" departSpeed="max" departPos="random"/>
    <trip id="206" depart="335.50" from="1157505358#1" to="-4295992#2" departLane="best" departSpeed="max" departPos="random"/>
    <trip id="207" depart="335.50" from="261423862#0" to="261418601" departLane="best" departSpeed="max" departPos="random"/>
    <trip id="208" depart="336.00" from="4211383#1" to="-3100654#1" departLane="best" departSpeed="max" departPos="random"/>
    <trip id="209" depart="338.50" from="326502793#4" to="171948480" departLane="best" departSpeed="max" departPos="random"/>
    <trip id="210" depart="341.50" from="-159234717#0" to="-4059030#1" departLane="best" departSpeed="max" departPos="random"/>
    <trip id="211" depart="342.50" from="-428036775#2" to="-261750866" departLane="best" departSpeed="max" departPos="random"/>
    <trip id="212" depart="342.50" from="-326502793#0" to="4295992#0" departLane="best" departSpeed="max" departPos="random"/>
    <trip id="213" depart="343.00" from="-4059030#1" to="689346035#1" departLane="best" departSpeed="max" departPos="random"/>
    <trip id="214" depart="343.50" from="-321883383#2" to="-1276314566" departLane="best" departSpeed="max" departPos="random"/>
    <trip id="215" depart="350.00" from="24581553" to="171948480" departLane="best" departSpeed="max" departPos="random"/>
    <trip id="216" depart="352.50" from="261750866" to="-1025860967#0" departLane="best" departSpeed="max" departPos="random"/>
    <trip id="217" depart="353.50" from="-137962150#2" to="3924804#3" departLane="best" departSpeed="max" departPos="random"/>
    <trip id="218" depart="355.00" from="261750866" to="150078330" departLane="best" departSpeed="max" departPos="random"/>
    <trip id="219" depart="357.50" from="149399184" to="668571648#1" departLane="best" departSpeed="max" departPos="random"/>
    <trip id="220" depart="357.50" from="-160611126#5" to="-68992847#0" departLane="best" departSpeed="max" departPos="random"/>
    <trip id="221" depart="359.50" from="68992847#1" to="-1082513142#1" departLane="best" departSpeed="max" departPos="random"/>
    <trip id="222" depart="361.50" from="-36894772#2" to="-261750866" departLane="best" departSpeed="max" departPos="random"/>
    <trip id="223" depart="364.00" from="159908038" to="-566409377#1" departLane="best" departSpeed="max" departPos="random"/>
    <trip id="224" depart="364.50" from="36966884" to="4818835#2" departLane="best" departSpeed="max" departPos="random"/>
    <trip id="225" depart="369.00" from="184170266#1" to="149399206#1" departLane="best" departSpeed="max" departPos="random"/>
    <trip id="226" depart="373.00" from="-3577472#1" to="422738801#0" departLane="best" departSpeed="max" departPos="random"/>
    <trip id="227" depart="375.00" from="261750867" to="422738801#3" departLane="best" departSpeed="max" departPos="random"/>
    <trip id="228" depart="378.50" from="261420059#1" to="4570906#1" departLane="best" departSpeed="max" departPos="random"/>
    <trip id="229" depart="384.00" from="261421751" to="-3527424#6" departLane="best" departSpeed="max" departPos="random"/>
    <trip id="230" depart="386.50" from="-1157505357" to="160611126#5" departLane="best" departSpeed="max" departPos="random"/>
    <trip id="231" depart="388.00" from="261421751" to="428021297#1" departLane="best" departSpeed="max" departPos="random"/>