<?xml version="1.0" encoding="UTF-8"?>

<!-- generated on 2025-07-30 17:33:22 by Eclipse SUMO netconvert Version 1.24.0
<netconvertConfiguration xmlns:xsi="http://www.w3.org/2001/XMLSchema-instance" xsi:noNamespaceSchemaLocation="http://sumo.dlr.de/xsd/netconvertConfiguration.xsd">

    <input>
        <osm-files value="map.osm"/>
    </input>

    <output>
        <output-file value="karlsruhe.net.xml"/>
    </output>

    <projection>
        <proj.utm value="true"/>
    </projection>

    <processing>
        <geometry.remove value="true"/>
        <roundabouts.guess value="true"/>
    </processing>

    <tls_building>
        <tls.guess-signals value="true"/>
    </tls_building>

    <ramp_guessing>
        <ramps.guess value="true"/>
    </ramp_guessing>

    <junctions>
        <junctions.join value="true"/>
    </junctions>

</netconvertConfiguration>
-->

<net version="1.20" junctionCornerDetail="5" limitTurnSpeed="5.50" xmlns:xsi="http://www.w3.org/2001/XMLSchema-instance" xsi:noNamespaceSchemaLocation="http://sumo.dlr.de/xsd/net_file.xsd">

    <location netOffset="-454313.62,-5428834.08" convBoundary="0.00,0.00,740.99,2254.88" origBoundary="8.375194,49.010750,8.385326,49.031030" projParameter="+proj=utm +zone=32 +ellps=WGS84 +datum=WGS84 +units=m +no_defs"/>

    <type id="highway.footway" priority="1" numLanes="1" speed="2.78" allow="pedestrian" oneway="1" width="2.00"/>
    <type id="highway.living_street" priority="2" numLanes="1" speed="2.78" disallow="tram rail_urban rail rail_electric rail_fast ship container cable_car subway aircraft wheelchair scooter drone" oneway="0"/>
    <type id="highway.path" priority="1" numLanes="1" speed="5.56" allow="pedestrian bicycle" oneway="0" width="2.00"/>
    <type id="highway.pedestrian" priority="1" numLanes="1" speed="2.78" allow="pedestrian" oneway="1" width="2.00"/>
    <type id="highway.residential" priority="3" numLanes="1" speed="13.89" disallow="tram rail_urban rail rail_electric rail_fast ship container cable_car subway aircraft wheelchair scooter drone" oneway="0"/>
    <type id="highway.secondary" priority="11" numLanes="1" speed="27.78" disallow="tram rail_urban rail rail_electric rail_fast ship container cable_car subway aircraft wheelchair scooter drone" oneway="0"/>
    <type id="highway.service" priority="1" numLanes="1" speed="5.56" allow="pedestrian delivery bicycle" oneway="0"/>
    <type id="highway.steps" priority="1" numLanes="1" speed="1.39" allow="pedestrian" oneway="1" width="2.00"/>
    <type id="highway.track" priority="1" numLanes="1" speed="5.56" allow="pedestrian motorcycle moped bicycle" oneway="0"/>

    <edge id=":1120212192_0" function="internal">
        <lane id=":1120212192_0_0" index="0" allow="pedestrian motorcycle moped bicycle" speed="5.56" length="7.57" shape="666.31,1313.00 662.57,1319.59"/>
    </edge>
    <edge id=":1120212192_1" function="internal">
        <lane id=":1120212192_1_0" index="0" allow="pedestrian bicycle" speed="5.56" length="12.08" width="2.00" shape="666.31,1313.00 664.11,1316.02 662.04,1316.91 660.10,1315.70 658.28,1312.36"/>
    </edge>
    <edge id=":1120212192_2" function="internal">
        <lane id=":1120212192_2_0" index="0" allow="pedestrian motorcycle moped bicycle" speed="3.65" length="4.67" shape="666.31,1313.00 665.02,1313.66 664.13,1313.62 663.62,1312.88 663.51,1311.44"/>
    </edge>
    <edge id=":1120212192_3" function="internal">
        <lane id=":1120212192_3_0" index="0" allow="pedestrian bicycle" speed="4.18" length="5.34" width="2.00" shape="659.96,1311.19 660.76,1312.65 661.62,1313.19 662.54,1312.78 663.51,1311.44"/>
    </edge>
    <edge id=":1120212192_4" function="internal">
        <lane id=":1120212192_4_0" index="0" allow="pedestrian bicycle" speed="5.56" length="8.85" width="2.00" shape="659.96,1311.19 660.60,1312.77 661.60,1315.41 662.43,1318.04 662.57,1319.59"/>
    </edge>
    <edge id=":1120212192_5" function="internal">
        <lane id=":1120212192_5_0" index="0" allow="pedestrian bicycle" speed="2.91" length="3.00" width="2.00" shape="659.96,1311.19 659.98,1312.11 659.71,1312.61 659.14,1312.70 658.28,1312.36"/>
    </edge>
    <edge id=":1120212192_6" function="internal">
        <lane id=":1120212192_6_0" index="0" allow="pedestrian bicycle" speed="5.56" length="5.87" width="2.00" shape="659.82,1317.96 659.85,1316.85 659.38,1315.18 658.75,1313.50 658.28,1312.36"/>
    </edge>
    <edge id=":1120212192_7" function="internal">
        <lane id=":1120212192_7_0" index="0" allow="pedestrian motorcycle moped bicycle" speed="5.56" length="7.48" shape="659.82,1317.96 663.51,1311.44"/>
    </edge>
    <edge id=":1120212192_8" function="internal">
        <lane id=":1120212192_8_0" index="0" allow="pedestrian motorcycle moped bicycle" speed="3.65" length="4.67" shape="659.82,1317.96 661.12,1317.33 662.01,1317.40 662.50,1318.15 662.57,1319.59"/>
    </edge>
    <edge id=":11359556165_0" function="internal">
        <lane id=":11359556165_0_0" index="0" disallow="tram rail_urban rail rail_electric rail_fast ship container cable_car subway aircraft wheelchair scooter drone" speed="2.78" length="3.94" width="2.70" shape="205.86,56.61 206.46,55.55 207.11,55.17 207.81,55.45 208.55,56.42"/>
    </edge>
    <edge id=":11407226316_0" function="internal">
        <lane id=":11407226316_0_0" index="0" disallow="tram rail_urban rail rail_electric rail_fast ship container cable_car subway aircraft wheelchair scooter drone" speed="2.78" length="5.15" width="2.25" shape="117.52,155.81 112.39,156.17"/>
    </edge>
    <edge id=":11407226316_1" function="internal">
        <lane id=":11407226316_1_0" index="0" disallow="tram rail_urban rail rail_electric rail_fast ship container cable_car subway aircraft wheelchair scooter drone" speed="2.78" length="5.13" width="2.30" shape="112.23,153.92 117.34,153.51"/>
    </edge>
    <edge id=":12161694579_0" function="internal">
        <lane id=":12161694579_0_0" index="0" allow="pedestrian bicycle" speed="2.89" length="2.92" width="2.00" shape="0.15,319.53 -0.67,319.15 -0.99,318.69 -0.81,318.16 -0.15,317.56"/>
    </edge>
    <edge id=":12161697579_0" function="internal">
        <lane id=":12161697579_0_0" index="0" disallow="tram rail_urban rail rail_electric rail_fast ship container cable_car subway aircraft wheelchair scooter drone" speed="8.33" length="7.04" shape="159.86,303.62 152.88,304.49"/>
    </edge>
    <edge id=":12161697579_1" function="internal">
        <lane id=":12161697579_1_0" index="0" allow="pedestrian bicycle" speed="6.20" length="2.37" width="2.00" shape="159.86,303.62 158.09,303.54 157.55,303.27"/>
    </edge>
    <edge id=":12161697579_7" function="internal">
        <lane id=":12161697579_7_0" index="0" allow="pedestrian bicycle" speed="6.20" length="4.92" width="2.00" shape="157.55,303.27 156.66,302.82 155.55,301.45 154.78,299.43"/>
    </edge>
    <edge id=":12161697579_2" function="internal">
        <lane id=":12161697579_2_0" index="0" allow="pedestrian bicycle" speed="4.36" length="3.48" width="2.00" shape="156.71,298.92 157.06,299.70 157.64,300.21 158.44,300.46 159.46,300.45"/>
    </edge>
    <edge id=":12161697579_3" function="internal">
        <lane id=":12161697579_3_0" index="0" allow="pedestrian bicycle" speed="5.76" length="7.97" width="2.00" shape="156.71,298.92 156.96,301.12 156.40,302.78 155.04,303.90 152.88,304.49"/>
    </edge>
    <edge id=":12161697579_4" function="internal">
        <lane id=":12161697579_4_0" index="0" allow="pedestrian bicycle" speed="2.89" length="2.92" width="2.00" shape="156.71,298.92 156.42,299.78 156.00,300.15 155.45,300.03 154.78,299.43"/>
    </edge>
    <edge id=":12161697579_5" function="internal">
        <lane id=":12161697579_5_0" index="0" allow="pedestrian bicycle" speed="4.17" length="3.41" width="2.00" shape="152.48,301.32 153.64,301.07 154.41,300.68 154.78,300.13 154.78,299.43"/>
    </edge>
    <edge id=":12161697579_6" function="internal">
        <lane id=":12161697579_6_0" index="0" disallow="tram rail_urban rail rail_electric rail_fast ship container cable_car subway aircraft wheelchair scooter drone" speed="8.33" length="7.04" shape="152.48,301.32 159.46,300.45"/>
    </edge>
    <edge id=":12161697581_0" function="internal">
        <lane id=":12161697581_0_0" index="0" allow="pedestrian bicycle" speed="3.93" length="3.02" width="2.00" shape="172.00,296.92 171.78,296.45 171.27,296.15 170.47,296.04 169.37,296.11"/>
    </edge>
    <edge id=":12161697581_1" function="internal">
        <lane id=":12161697581_1_0" index="0" allow="pedestrian bicycle" speed="5.37" length="6.20" width="2.00" shape="172.00,296.92 172.10,295.52 172.81,294.44 174.13,293.68 176.06,293.23"/>
    </edge>
    <edge id=":12161697581_2" function="internal">
        <lane id=":12161697581_2_0" index="0" allow="pedestrian bicycle" speed="2.89" length="2.92" width="2.00" shape="172.00,296.92 172.40,296.11 172.86,295.80 173.39,295.99 173.98,296.66"/>
    </edge>
    <edge id=":12161697581_3" function="internal">
        <lane id=":12161697581_3_0" index="0" allow="pedestrian bicycle" speed="3.93" length="3.02" width="2.00" shape="176.31,295.21 175.24,295.42 174.49,295.74 174.07,296.15 173.98,296.66"/>
    </edge>
    <edge id=":12161697581_4" function="internal">
        <lane id=":12161697581_4_0" index="0" allow="pedestrian bicycle" speed="5.56" length="7.00" width="2.00" shape="176.31,295.21 169.37,296.11"/>
    </edge>
    <edge id=":12161697581_5" function="internal">
        <lane id=":12161697581_5_0" index="0" allow="pedestrian bicycle" speed="2.89" length="2.92" width="2.00" shape="176.31,295.21 175.51,294.81 175.20,294.35 175.38,293.82 176.06,293.23"/>
    </edge>
    <edge id=":12161697581_6" function="internal">
        <lane id=":12161697581_6_0" index="0" allow="pedestrian bicycle" speed="5.56" length="7.00" width="2.00" shape="169.12,294.12 176.06,293.23"/>
    </edge>
    <edge id=":12161697581_7" function="internal">
        <lane id=":12161697581_7_0" index="0" allow="pedestrian bicycle" speed="5.37" length="6.20" width="2.00" shape="169.12,294.12 171.09,294.07 172.56,294.47 173.53,295.34 173.98,296.66"/>
    </edge>
    <edge id=":12161697581_8" function="internal">
        <lane id=":12161697581_8_0" index="0" allow="pedestrian bicycle" speed="2.89" length="2.92" width="2.00" shape="169.12,294.12 169.93,294.52 170.24,294.99 170.05,295.52 169.37,296.11"/>
    </edge>
    <edge id=":12161697585_0" function="internal">
        <lane id=":12161697585_0_0" index="0" allow="pedestrian bicycle" speed="5.56" length="3.40" width="2.00" shape="381.08,268.50 377.71,268.94"/>
    </edge>
    <edge id=":12161697585_1" function="internal">
        <lane id=":12161697585_1_0" index="0" allow="pedestrian bicycle" speed="2.89" length="2.92" width="2.00" shape="381.08,268.50 380.27,268.10 379.96,267.64 380.14,267.11 380.82,266.52"/>
    </edge>
    <edge id=":12161697585_2" function="internal">
        <lane id=":12161697585_2_0" index="0" allow="pedestrian bicycle" speed="5.56" length="3.40" width="2.00" shape="377.45,266.95 380.82,266.52"/>
    </edge>
    <edge id=":12161697585_3" function="internal">
        <lane id=":12161697585_3_0" index="0" allow="pedestrian bicycle" speed="2.89" length="2.92" width="2.00" shape="377.45,266.95 378.26,267.35 378.57,267.82 378.39,268.35 377.71,268.94"/>
    </edge>
    <edge id=":12161697586_0" function="internal">
        <lane id=":12161697586_0_0" index="0" allow="pedestrian bicycle" speed="5.56" length="5.00" width="2.00" shape="436.53,261.35 431.57,261.99"/>
    </edge>
    <edge id=":12161697586_1" function="internal">
        <lane id=":12161697586_1_0" index="0" allow="pedestrian bicycle" speed="2.89" length="2.92" width="2.00" shape="436.53,261.35 435.72,260.95 435.41,260.49 435.60,259.96 436.28,259.37"/>
    </edge>
    <edge id=":12161697586_2" function="internal">
        <lane id=":12161697586_2_0" index="0" allow="pedestrian bicycle" speed="5.56" length="5.00" width="2.00" shape="431.32,260.01 436.28,259.37"/>
    </edge>
    <edge id=":12161697586_3" function="internal">
        <lane id=":12161697586_3_0" index="0" allow="pedestrian bicycle" speed="2.89" length="2.92" width="2.00" shape="431.32,260.01 432.12,260.41 432.43,260.87 432.25,261.40 431.57,261.99"/>
    </edge>
    <edge id=":12534875327_0" function="internal">
        <lane id=":12534875327_0_0" index="0" allow="pedestrian bicycle" speed="2.89" length="2.92" width="2.00" shape="604.85,147.21 604.07,146.75 603.80,146.27 604.02,145.75 604.74,145.21"/>
    </edge>
    <edge id=":12534875330_0" function="internal">
        <lane id=":12534875330_0_0" index="0" allow="pedestrian bicycle" speed="2.89" length="2.92" width="2.00" shape="605.45,145.17 606.22,145.63 606.50,146.12 606.28,146.63 605.56,147.17"/>
    </edge>
    <edge id=":12534875331_0" function="internal">
        <lane id=":12534875331_0_0" index="0" allow="pedestrian bicycle" speed="2.89" length="2.92" width="2.00" shape="610.97,146.88 610.19,146.42 609.91,145.93 610.13,145.42 610.86,144.88"/>
    </edge>
    <edge id=":12534875332_0" function="internal">
        <lane id=":12534875332_0_0" index="0" allow="pedestrian bicycle" speed="2.89" length="2.92" width="2.00" shape="621.20,144.31 621.98,144.77 622.25,145.26 622.03,145.77 621.31,146.31"/>
    </edge>
    <edge id=":12534875333_0" function="internal">
        <lane id=":12534875333_0_0" index="0" allow="pedestrian bicycle" speed="2.89" length="2.92" width="2.00" shape="627.21,145.98 626.44,145.52 626.16,145.03 626.38,144.52 627.11,143.98"/>
    </edge>
    <edge id=":12535094350_0" function="internal">
        <lane id=":12535094350_0_0" index="0" allow="pedestrian delivery bicycle" speed="5.56" length="9.40" shape="118.29,96.74 117.62,87.36"/>
    </edge>
    <edge id=":12535094350_1" function="internal">
        <lane id=":12535094350_1_0" index="0" allow="pedestrian delivery bicycle" speed="5.56" length="10.17" shape="118.29,96.74 118.50,94.00 119.54,91.96 121.43,90.62 124.17,89.97"/>
    </edge>
    <edge id=":12535094350_2" function="internal">
        <lane id=":12535094350_2_0" index="0" allow="pedestrian delivery bicycle" speed="3.65" length="4.67" shape="118.29,96.74 119.01,95.49 119.78,95.03 120.60,95.37 121.48,96.51"/>
    </edge>
    <edge id=":12535094350_3" function="internal">
        <lane id=":12535094350_3_0" index="0" allow="pedestrian delivery bicycle" speed="5.12" length="5.10" shape="124.47,93.15 123.08,93.48 122.12,94.15 121.59,95.16 121.48,96.51"/>
    </edge>
    <edge id=":12535094350_4" function="internal">
        <lane id=":12535094350_4_0" index="0" allow="pedestrian delivery bicycle" speed="5.56" length="10.28" shape="124.47,93.15 121.65,93.02 119.56,92.01 118.22,90.13 117.62,87.36"/>
    </edge>
    <edge id=":12535094350_5" function="internal">
        <lane id=":12535094350_5_0" index="0" allow="pedestrian delivery bicycle" speed="3.65" length="4.67" shape="124.47,93.15 123.20,92.47 122.73,91.71 123.05,90.88 124.17,89.97"/>
    </edge>
    <edge id=":12535094350_6" function="internal">
        <lane id=":12535094350_6_0" index="0" allow="pedestrian delivery bicycle" speed="5.01" length="5.03" shape="120.82,87.13 121.11,88.49 121.77,89.41 122.78,89.90 124.17,89.97"/>
    </edge>
    <edge id=":12535094350_7" function="internal">
        <lane id=":12535094350_7_0" index="0" allow="pedestrian delivery bicycle" speed="5.56" length="9.40" shape="120.82,87.13 121.48,96.51"/>
    </edge>
    <edge id=":12535094350_8" function="internal">
        <lane id=":12535094350_8_0" index="0" allow="pedestrian delivery bicycle" speed="3.65" length="4.67" shape="120.82,87.13 120.10,88.39 119.33,88.84 118.51,88.50 117.62,87.36"/>
    </edge>
    <edge id=":12557747015_0" function="internal">
        <lane id=":12557747015_0_0" index="0" disallow="tram rail_urban rail rail_electric rail_fast ship container cable_car subway aircraft wheelchair scooter drone" speed="2.78" length="5.00" width="2.70" shape="208.72,97.21 208.37,92.22"/>
    </edge>
    <edge id=":12557747015_1" function="internal">
        <lane id=":12557747015_1_0" index="0" disallow="tram rail_urban rail rail_electric rail_fast ship container cable_car subway aircraft wheelchair scooter drone" speed="2.78" length="5.00" width="2.70" shape="211.06,92.03 211.42,97.02"/>
    </edge>
    <edge id=":1257923445_0" function="internal">
        <lane id=":1257923445_0_0" index="0" allow="pedestrian delivery bicycle" speed="5.00" length="5.05" shape="407.79,984.92 407.25,983.64 406.43,982.85 405.34,982.57 403.96,982.78"/>
    </edge>
    <edge id=":1257923445_1" function="internal">
        <lane id=":1257923445_1_0" index="0" allow="pedestrian delivery bicycle" speed="5.56" length="10.39" shape="407.79,984.92 405.19,974.86"/>
    </edge>
    <edge id=":1257923445_2" function="internal">
        <lane id=":1257923445_2_0" index="0" allow="pedestrian delivery bicycle" speed="5.56" length="11.05" shape="407.79,984.92 407.49,982.14 408.14,979.70 409.74,977.60 412.28,975.83"/>
    </edge>
    <edge id=":1257923445_3" function="internal">
        <lane id=":1257923445_3_0" index="0" allow="pedestrian delivery bicycle" speed="3.65" length="4.67" shape="407.79,984.92 408.26,983.56 408.93,982.97 409.81,983.15 410.89,984.11"/>
    </edge>
    <edge id=":1257923445_4" function="internal">
        <lane id=":1257923445_4_0" index="0" allow="pedestrian delivery bicycle" speed="5.56" length="7.04" shape="413.78,978.69 412.08,979.40 411.03,980.54 410.63,982.11 410.89,984.11"/>
    </edge>
    <edge id=":1257923445_5" function="internal">
        <lane id=":1257923445_5_0" index="0" allow="pedestrian delivery bicycle" speed="6.95" length="10.67" shape="413.78,978.69 410.87,979.62 408.85,980.63 406.83,981.69 403.96,982.78"/>
    </edge>
    <edge id=":1257923445_6" function="internal">
        <lane id=":1257923445_6_0" index="0" allow="pedestrian delivery bicycle" speed="5.56" length="2.24" shape="413.78,978.69 411.57,978.97"/>
    </edge>
    <edge id=":1257923445_7" function="internal">
        <lane id=":1257923445_7_0" index="0" allow="pedestrian delivery bicycle" speed="3.77" length="1.45" shape="413.78,978.69 412.34,978.54"/>
    </edge>
    <edge id=":1257923445_16" function="internal">
        <lane id=":1257923445_16_0" index="0" allow="pedestrian delivery bicycle" speed="5.56" length="8.42" shape="411.57,978.97 410.56,979.10 408.05,978.60 406.26,977.19 405.19,974.86"/>
    </edge>
    <edge id=":1257923445_17" function="internal">
        <lane id=":1257923445_17_0" index="0" allow="pedestrian delivery bicycle" speed="3.77" length="3.25" shape="412.34,978.54 411.61,978.01 411.59,977.11 412.28,975.83"/>
    </edge>
    <edge id=":1257923445_8" function="internal">
        <lane id=":1257923445_8_0" index="0" allow="pedestrian delivery bicycle" speed="4.83" length="5.30" shape="408.29,974.07 408.87,975.46 409.73,976.22 410.86,976.34 412.28,975.83"/>
    </edge>
    <edge id=":1257923445_9" function="internal">
        <lane id=":1257923445_9_0" index="0" allow="pedestrian delivery bicycle" speed="5.56" length="10.38" shape="408.29,974.07 410.89,984.11"/>
    </edge>
    <edge id=":1257923445_10" function="internal">
        <lane id=":1257923445_10_0" index="0" allow="pedestrian delivery bicycle" speed="6.95" length="10.98" shape="408.29,974.07 408.68,977.18 408.09,979.67 406.52,981.54 403.96,982.78"/>
    </edge>
    <edge id=":1257923445_11" function="internal">
        <lane id=":1257923445_11_0" index="0" allow="pedestrian delivery bicycle" speed="3.65" length="4.67" shape="408.29,974.07 407.81,975.43 407.14,976.01 406.26,975.83 405.19,974.86"/>
    </edge>
    <edge id=":1257923445_12" function="internal">
        <lane id=":1257923445_12_0" index="0" allow="pedestrian delivery bicycle" speed="5.51" length="5.98" shape="403.03,979.71 404.35,979.05 405.15,978.02 405.43,976.63 405.19,974.86"/>
    </edge>
    <edge id=":1257923445_13" function="internal">
        <lane id=":1257923445_13_0" index="0" allow="pedestrian delivery bicycle" speed="6.95" length="10.06" shape="403.03,979.71 405.88,978.82 407.79,978.11 409.64,977.22 412.28,975.83"/>
    </edge>
    <edge id=":1257923445_14" function="internal">
        <lane id=":1257923445_14_0" index="0" allow="pedestrian delivery bicycle" speed="6.83" length="2.42" shape="403.03,979.71 405.42,979.35"/>
    </edge>
    <edge id=":1257923445_15" function="internal">
        <lane id=":1257923445_15_0" index="0" disallow="tram rail_urban rail rail_electric rail_fast ship container cable_car subway aircraft wheelchair scooter drone" speed="3.65" length="1.44" shape="403.03,979.71 404.41,980.13"/>
    </edge>
    <edge id=":1257923445_18" function="internal">
        <lane id=":1257923445_18_0" index="0" allow="pedestrian delivery bicycle" speed="6.83" length="7.94" shape="405.42,979.35 405.86,979.28 408.10,979.87 409.78,981.48 410.89,984.11"/>
    </edge>
    <edge id=":1257923445_19" function="internal">
        <lane id=":1257923445_19_0" index="0" disallow="tram rail_urban rail rail_electric rail_fast ship container cable_car subway aircraft wheelchair scooter drone" speed="3.65" length="3.23" shape="404.41,980.13 405.03,980.78 404.88,981.66 403.96,982.78"/>
    </edge>
    <edge id=":1257923780_0" function="internal">
        <lane id=":1257923780_0_0" index="0" allow="pedestrian delivery bicycle" speed="5.19" length="4.96" shape="458.11,972.28 457.68,970.98 456.96,970.09 455.93,969.61 454.61,969.54"/>
    </edge>
    <edge id=":1257923780_1" function="internal">
        <lane id=":1257923780_1_0" index="0" disallow="tram rail_urban rail rail_electric rail_fast ship container cable_car subway aircraft wheelchair scooter drone" speed="6.12" length="7.67" shape="458.11,972.28 457.79,969.55 457.97,967.51 458.66,966.16 459.85,965.50"/>
    </edge>
    <edge id=":1257923780_2" function="internal">
        <lane id=":1257923780_2_0" index="0" allow="pedestrian delivery bicycle" speed="6.95" length="6.00" shape="460.53,968.63 458.79,969.00 457.59,969.22 456.38,969.38 454.61,969.54"/>
    </edge>
    <edge id=":1257923780_3" function="internal">
        <lane id=":1257923780_3_0" index="0" disallow="tram rail_urban rail rail_electric rail_fast ship container cable_car subway aircraft wheelchair scooter drone" speed="3.65" length="0.83" shape="460.53,968.63 459.76,968.32"/>
    </edge>
    <edge id=":1257923780_6" function="internal">
        <lane id=":1257923780_6_0" index="0" disallow="tram rail_urban rail rail_electric rail_fast ship container cable_car subway aircraft wheelchair scooter drone" speed="3.65" length="3.84" shape="459.76,968.32 459.19,968.10 458.63,967.40 458.85,966.54 459.85,965.50"/>
    </edge>
    <edge id=":1257923780_4" function="internal">
        <lane id=":1257923780_4_0" index="0" allow="pedestrian delivery bicycle" speed="6.95" length="5.59" shape="454.33,966.35 455.99,966.20 457.11,966.06 458.23,965.85 459.85,965.50"/>
    </edge>
    <edge id=":1257923780_5" function="internal">
        <lane id=":1257923780_5_0" index="0" allow="pedestrian delivery bicycle" speed="3.65" length="4.67" shape="454.33,966.35 455.60,967.04 456.07,967.81 455.74,968.64 454.61,969.54"/>
    </edge>
    <edge id=":1258468021_0" function="internal">
        <lane id=":1258468021_0_0" index="0" disallow="tram rail_urban rail rail_electric rail_fast ship container cable_car subway aircraft wheelchair scooter drone" speed="8.33" length="5.57" width="3.50" shape="666.66,139.21 665.42,140.31 664.55,141.04 663.66,141.73 662.31,142.70"/>
    </edge>
    <edge id=":1258468021_1" function="internal">
        <lane id=":1258468021_1_0" index="0" disallow="tram rail_urban rail rail_electric rail_fast ship container cable_car subway aircraft wheelchair scooter drone" speed="8.33" length="5.19" width="3.50" shape="660.28,139.84 661.54,138.94 662.37,138.30 663.18,137.62 664.33,136.60"/>
    </edge>
    <edge id=":1258468255_0" function="internal">
        <lane id=":1258468255_0_0" index="0" disallow="tram rail_urban rail rail_electric rail_fast ship container cable_car subway aircraft wheelchair scooter drone" speed="8.33" length="5.01" width="2.75" shape="635.12,111.95 630.12,112.35"/>
    </edge>
    <edge id=":1258468255_1" function="internal">
        <lane id=":1258468255_1_0" index="0" disallow="tram rail_urban rail rail_electric rail_fast ship container cable_car subway aircraft wheelchair scooter drone" speed="8.33" length="5.03" width="2.75" shape="629.89,109.61 634.90,109.20"/>
    </edge>
    <edge id=":12824860753_0" function="internal">
        <lane id=":12824860753_0_0" index="0" disallow="tram rail_urban rail rail_electric rail_fast ship container cable_car subway aircraft wheelchair scooter drone" speed="8.33" length="5.36" width="4.25" shape="596.57,172.19 596.13,166.85"/>
    </edge>
    <edge id=":12824860753_1" function="internal">
        <lane id=":12824860753_1_0" index="0" disallow="tram rail_urban rail rail_electric rail_fast ship container cable_car subway aircraft wheelchair scooter drone" speed="8.33" length="5.36" width="4.25" shape="600.36,166.50 600.81,171.84"/>
    </edge>
    <edge id=":12889472480_0" function="internal">
        <lane id=":12889472480_0_0" index="0" disallow="tram rail_urban rail rail_electric rail_fast ship container cable_car subway aircraft wheelchair scooter drone" speed="3.65" length="4.67" shape="29.61,320.60 28.32,319.96 27.82,319.22 28.12,318.38 29.20,317.43"/>
    </edge>
    <edge id=":12920058877_0" function="internal">
        <lane id=":12920058877_0_0" index="0" allow="pedestrian delivery bicycle" speed="3.65" length="4.67" shape="669.26,413.87 670.51,414.58 670.97,415.35 670.62,416.18 669.48,417.06"/>
    </edge>
    <edge id=":1482277400_0" function="internal">
        <lane id=":1482277400_0_0" index="0" allow="pedestrian bicycle" speed="2.89" length="2.92" width="2.00" shape="204.75,156.81 205.61,156.53 206.16,156.64 206.40,157.15 206.33,158.04"/>
    </edge>
    <edge id=":1482277447_0" function="internal">
        <lane id=":1482277447_0_0" index="0" allow="pedestrian bicycle" speed="5.56" length="7.27" width="2.00" shape="113.62,207.38 111.59,206.36 109.80,205.95 108.22,206.16 106.87,206.97"/>
    </edge>
    <edge id=":1482277447_1" function="internal">
        <lane id=":1482277447_1_0" index="0" allow="pedestrian bicycle" speed="5.56" length="9.89" width="2.00" shape="113.62,207.38 105.26,202.08"/>
    </edge>
    <edge id=":1482277447_2" function="internal">
        <lane id=":1482277447_2_0" index="0" allow="pedestrian bicycle" speed="5.53" length="10.14" width="2.00" shape="113.62,207.38 111.14,205.40 110.45,203.63 111.54,202.07 114.41,200.72"/>
    </edge>
    <edge id=":1482277447_3" function="internal">
        <lane id=":1482277447_3_0" index="0" allow="pedestrian bicycle" speed="2.89" length="2.92" width="2.00" shape="113.62,207.38 113.24,206.56 113.29,206.01 113.77,205.71 114.67,205.68"/>
    </edge>
    <edge id=":1482277447_4" function="internal">
        <lane id=":1482277447_4_0" index="0" allow="pedestrian bicycle" speed="3.94" length="4.66" width="2.00" shape="115.04,202.62 113.72,203.24 113.22,203.96 113.53,204.77 114.67,205.68"/>
    </edge>
    <edge id=":1482277447_5" function="internal">
        <lane id=":1482277447_5_0" index="0" allow="pedestrian bicycle" speed="5.56" length="9.37" width="2.00" shape="115.04,202.62 112.39,203.48 110.59,204.18 108.98,205.19 106.87,206.97"/>
    </edge>
    <edge id=":1482277447_6" function="internal">
        <lane id=":1482277447_6_0" index="0" allow="pedestrian bicycle" speed="5.56" length="10.12" width="2.00" shape="115.04,202.62 112.20,203.32 109.62,203.47 107.31,203.05 105.26,202.08"/>
    </edge>
    <edge id=":1482277447_7" function="internal">
        <lane id=":1482277447_7_0" index="0" allow="pedestrian bicycle" speed="2.89" length="2.92" width="2.00" shape="115.04,202.62 114.17,202.38 113.77,201.99 113.85,201.43 114.41,200.72"/>
    </edge>
    <edge id=":1482277447_8" function="internal">
        <lane id=":1482277447_8_0" index="0" allow="pedestrian bicycle" speed="5.56" length="8.32" width="2.00" shape="106.36,200.41 108.00,201.17 109.88,201.47 112.02,201.33 114.41,200.72"/>
    </edge>
    <edge id=":1482277447_9" function="internal">
        <lane id=":1482277447_9_0" index="0" allow="pedestrian bicycle" speed="5.56" length="9.84" width="2.00" shape="106.36,200.41 114.67,205.68"/>
    </edge>
    <edge id=":1482277447_10" function="internal">
        <lane id=":1482277447_10_0" index="0" allow="pedestrian bicycle" speed="5.56" length="8.05" width="2.00" shape="106.36,200.41 108.08,201.92 108.74,203.52 108.34,205.21 106.87,206.97"/>
    </edge>
    <edge id=":1482277447_11" function="internal">
        <lane id=":1482277447_11_0" index="0" allow="pedestrian bicycle" speed="2.89" length="2.92" width="2.00" shape="106.36,200.41 106.71,201.24 106.65,201.79 106.17,202.07 105.26,202.08"/>
    </edge>
    <edge id=":1482277447_12" function="internal">
        <lane id=":1482277447_12_0" index="0" allow="pedestrian bicycle" speed="4.17" length="4.18" width="2.00" shape="105.53,205.49 106.29,204.57 106.50,203.70 106.16,202.87 105.26,202.08"/>
    </edge>
    <edge id=":1482277447_13" function="internal">
        <lane id=":1482277447_13_0" index="0" allow="pedestrian bicycle" speed="5.56" length="10.21" width="2.00" shape="105.53,205.49 107.81,203.55 109.58,202.44 111.54,201.66 114.41,200.72"/>
    </edge>
    <edge id=":1482277447_14" function="internal">
        <lane id=":1482277447_14_0" index="0" allow="pedestrian bicycle" speed="5.56" length="9.87" width="2.00" shape="105.53,205.49 107.45,204.28 109.61,203.91 112.02,204.38 114.67,205.68"/>
    </edge>
    <edge id=":1482277447_15" function="internal">
        <lane id=":1482277447_15_0" index="0" allow="pedestrian bicycle" speed="2.89" length="2.92" width="2.00" shape="105.53,205.49 106.42,205.35 106.94,205.56 107.09,206.10 106.87,206.97"/>
    </edge>