<?xml version="1.0" encoding="UTF-8"?>

<!-- generated on 2025-07-30 17:33:53.559203 by randomTrips.py v1_24_0+0000-b72eb3fabc8
<configuration>
    <net-file value="karlsruhe.net.xml"/>
    <output-trip-file value="karlsruhe.rou.xml"/>
    <prefix value="veh"/>
    <trip-attributes value="departLane=&quot;best&quot; departSpeed=&quot;max&quot; departPos=&quot;random&quot;"/>
    <end value="1000.0"/>
</configuration>
-->

<!-- generated on 2025-07-30 17:33:53 by Eclipse SUMO duarouter Version 1.24.0
<duarouterConfiguration xmlns:xsi="http://www.w3.org/2001/XMLSchema-instance" xsi:noNamespaceSchemaLocation="http://sumo.dlr.de/xsd/duarouterConfiguration.xsd">

    <input>
        <net-file value="karlsruhe.net.xml"/>
        <route-files value="karlsruhe.rou.xml"/>
    </input>

    <output>
        <output-file value="routes.rou.xml"/>
        <alternatives-output value="NUL"/>
    </output>

    <time>
        <begin value="0"/>
        <end value="1000.0"/>
    </time>

    <report>
        <no-warnings value="true"/>
        <ignore-errors value="true"/>
        <no-step-log value="true"/>
    </report>

</duarouterConfiguration>
-->

<routes xmlns:xsi="http://www.w3.org/2001/XMLSchema-instance" xsi:noNamespaceSchemaLocation="http://sumo.dlr.de/xsd/routes_file.xsd">
    <vehicle id="veh0" depart="0.00" departLane="best" departPos="random" departSpeed="max">
        <route edges="3390782 -3390782 -938483226#3 -938483226#2 -1271488031#2 -1271488031#1 -234418248#1 3527437#5 -4212447#1 -4212447#0 -1080916208#2"/>
    </vehicle>
    <vehicle id="veh1" depart="1.00" departLane="best" departPos="random" departSpeed="max">
        <route edges="-3527422#1 -3527422#0 4212447#0 4212447#1 -3527437#5 234418248#1 3390786#0 3390779 3431090#0 3431090#1 -3431090#1 -3431090#0"/>
    </vehicle>
    <vehicle id="veh2" depart="2.00" departLane="best" departPos="random" departSpeed="max">
        <route edges="3454238#1 4211638#11 4211638#12 4211638#13 4211638#14 -4230630#1 -4230630#0 341907343#1"/>
    </vehicle>
    <vehicle id="veh3" depart="3.00" departLane="best" departPos="random" departSpeed="max">
        <route edges="4212436#1 -4212438#1 -4212438#0 -10437232#2 -10437232#1 -3454239#1 -3454239#0 -199089178#3"/>
    </vehicle>
    <vehicle id="veh4" depart="4.00" departLane="best" departPos="random" departSpeed="max">
        <route edges="-4230628 4230628 229345315#1 341907345#0 4230627#0 4230627#1 4211638#22 4211638#23 3454237 333167777#0 333167777#2 333167777#3 333167777#4 -199089178#6 -199089178#5 3390778#1 3390786#2 1271488032 -1271488031#2"/>
    </vehicle>
    <vehicle id="veh5" depart="5.00" departLane="best" departPos="random" departSpeed="max">
        <route edges="-3426740#8 -3426740#7 -3426740#5 -3426740#3 -3426740#2 -3426740#1 3426740#1 3426740#2 3426740#3 3426740#5 3426740#7 3426740#8 -3454238#3 -3454238#2 -3454238#1 -3454238#0 -3454239#1 -3454239#0 -3390777#1 1271488032 -1271488031#2 -1271488031#1 -134898037#2 134898037#2"/>
    </vehicle>
    <vehicle id="veh6" depart="6.00" departLane="best" departPos="random" departSpeed="max">
        <route edges="-1271488031#2 -1271488031#1 3390786#0 3390786#1 -3390778#1 -199089178#4 3454239#0 3454239#1 3454238#0 3454238#1 3454238#2 3454238#3 -3426740#8 -3426740#7 -3426740#5 -3426740#3 -3426740#2 -3426740#1"/>
    </vehicle>
    <vehicle id="veh7" depart="7.00" departLane="best" departPos="random" departSpeed="max">
        <route edges="3390786#0 3390786#1 -3390778#1 -199089178#4 -199089178#3 -199089178#2 -199089178#1 199089178#1 199089178#2"/>
    </vehicle>
    <vehicle id="veh8" depart="8.00" departLane="best" departPos="random" departSpeed="max">
        <route edges="-3426740#9 -3454238#3 -3454238#2 -3454238#1 -3454238#0 -3454239#1 -3454239#0 -3390777#1 1271488032 -1271488031#2 -1271488031#1 -234418248#1 -266635495#2 -266635495#1 -266635495#0 266635495#0 266635495#1 266635495#2"/>
    </vehicle>
    <vehicle id="veh9" depart="9.00" departLane="best" departPos="random" departSpeed="max">
        <route edges="3527437#9 3527437#10 -3527437#10 -3527437#9 -3527437#8 -3527437#7 -3527437#5 234418248#1 3390786#0 3390779 334699573#1 -333167777#4 -333167777#3 -333167777#2 -10437232#5 -10437232#4 -10437232#3 -10437232#2"/>
    </vehicle>
    <vehicle id="veh10" depart="10.00" departLane="best" departPos="random" departSpeed="max">
        <route edges="3527437#8 3527437#9 3527437#10 -3527437#10 -3527437#9 -3527437#8 -3527437#7 -3527437#5 234418248#1 3390786#0 3390786#1 -3390778#1 -199089178#4 3454239#0 3454239#1 3454238#0 3454238#1 3454238#2 3454238#3 -3426740#8 -3426740#7 -3426740#5 -3426740#3 -3426740#2 -3426740#1 3426740#1 3426740#2 3426740#3 3426740#5"/>
    </vehicle>
    <vehicle id="veh11" depart="11.00" departLane="best" departPos="random" departSpeed="max">
        <route edges="-4211638#10 -4211638#8 4211638#8 4211638#10 -3454238#1 -3454238#0 -3454239#1 -3454239#0 -199089178#3 -3390785#0 -3390780#2 -3390782"/>
    </vehicle>
    <vehicle id="veh12" depart="12.00" departLane="best" departPos="random" departSpeed="max">
        <route edges="531706366 4211638#1 4211638#2 4211638#3 4211638#4 4211638#5 4211638#6 4211638#8 4211638#10 4211638#11 4211638#12 4211638#13 4211638#14 -4211638#14 -4211638#13 -4211638#12 -4211638#11"/>
    </vehicle>
    <vehicle id="veh13" depart="13.00" departLane="best" departPos="random" departSpeed="max">
        <route edges="-199089178#6 -199089178#5"/>
    </vehicle>
    <vehicle id="veh14" depart="14.00" departLane="best" departPos="random" departSpeed="max">
        <route edges="4211638#17 4211638#18 4211638#19 4211638#22 4211638#23 3454237 333167777#0 333167777#2 333167777#3 333167777#4"/>
    </vehicle>
    <vehicle id="veh15" depart="15.00" departLane="best" departPos="random" departSpeed="max">
        <route edges="3527437#9 3527437#10 -3527437#10 -3527437#9 -3527437#8 -3527437#7 -3527437#5 234418248#1 3390786#0 3390779 334699573#1 -333167777#4 -333167777#3 -333167777#2 -333167777#0 -3454237 3454237"/>
    </vehicle>
    <vehicle id="veh16" depart="16.00" departLane="best" departPos="random" departSpeed="max">
        <route edges="1388522632#4 1388522632#5 1388522632#6 -1388522632#6 -1388522632#5 -1388522632#4 -1388522632#3 -1388522632#2 -1388522632#0 -3454238#3 -3454238#2 -3454238#1 -3454238#0 -925103863#5 -925103863#4 -925103863#3 -925103863#1 -925103863#0 925103863#0 925103863#1"/>
    </vehicle>
    <vehicle id="veh17" depart="17.00" departLane="best" departPos="random" departSpeed="max">
        <route edges="-4211638#24 3454237 333167777#0 333167777#2 333167777#3 333167777#4 -199089178#6 -199089178#5 -199089178#4 199089178#4"/>
    </vehicle>
    <vehicle id="veh18" depart="18.00" departLane="best" departPos="random" departSpeed="max">
        <route edges="4211638#10 -3454238#1 -3454238#0 -3454239#1 -3454239#0 199089178#4 199089178#5 199089178#6 -334699573#1 -334699573#0 3390779"/>
    </vehicle>
    <vehicle id="veh19" depart="19.00" departLane="best" departPos="random" departSpeed="max">
        <route edges="4211638#22 4211638#23 3454237 333167777#0 333167777#2 333167777#3 333167777#4 -199089178#6 -199089178#5 3390778#1 3390786#2 1271488032 -1271488031#2 -1271488031#1 -234418248#1 234418248#1"/>
    </vehicle>
    <vehicle id="veh20" depart="20.00" departLane="best" departPos="random" departSpeed="max">
        <route edges="3426740#5 3426740#7 3426740#8 -3454238#3 -3454238#2 -3454238#1 -3454238#0 -3454239#1 -3454239#0 -3390777#1 1271488032 -1271488031#2 -1271488031#1 -234418248#1 3527437#5 -4212447#1 -4212447#0 -1387200177#1 -1387200177#0"/>
    </vehicle>
    <vehicle id="veh21" depart="21.00" departLane="best" departPos="random" departSpeed="max">
        <route edges="-3431090#1 -3431090#0 -334699573#0 3390786#1 3390786#2 1271488032 -1271488031#2 -1271488031#1 -234418248#1 -3527437#4 -3527437#3 -3527437#2"/>
    </vehicle>
    <vehicle id="veh22" depart="22.00" departLane="best" departPos="random" departSpeed="max">
        <route edges="-199089178#3 199089178#3 3454239#0 3454239#1 -925103863#5 -3454236#1"/>
    </vehicle>
    <vehicle id="veh23" depart="23.00" departLane="best" departPos="random" departSpeed="max">
        <route edges="-266635495#0 266635495#0 266635495#1 266635495#2 234418248#1 3390786#0 3390779 334699573#1 -333167777#4 -333167777#3 -333167777#2 -333167777#0 -3454237 -4211638#23 -4211638#22 -4230627#1 -4230627#0 341907345#1 229345315#0 -4230628 340749276#2 3454256#0 3454256#1 3527431#2 -3527431#2"/>
    </vehicle>
    <vehicle id="veh24" depart="24.00" departLane="best" departPos="random" departSpeed="max">
        <route edges="3390780#2 3390785#0 199089178#3 199089178#4 199089178#5 199089178#6 -333167777#4 -333167777#3 -333167777#2 -333167777#0 -3454237 -4211638#23 -4211638#22"/>
    </vehicle>
    <vehicle id="veh25" depart="25.00" departLane="best" departPos="random" departSpeed="max">
        <route edges="-4211638#22 -4211638#19 -4211638#18 -4211638#17 -4211638#14 -4211638#13 -4211638#12 -4211638#11 3454238#2 3454238#3 -3426740#8 -3426740#7 -3426740#5"/>
    </vehicle>
    <vehicle id="veh26" depart="26.00" departLane="best" departPos="random" departSpeed="max">
        <route edges="-3454256#1 -3454256#0 -340749276#2 4230628 229345315#1 341907345#0 4230627#0"/>
    </vehicle>
    <vehicle id="veh27" depart="27.00" departLane="best" departPos="random" departSpeed="max">
        <route edges="3390785#0 199089178#3 -3390777#1 3390777#1"/>
    </vehicle>
    <vehicle id="veh28" depart="28.00" departLane="best" departPos="random" departSpeed="max">
        <route edges="-340749276#1 -340749276#0 340749276#0 340749276#1 4230628 229345315#1 341907345#0 4230627#0 4230627#1 4211638#22 4211638#23 3454237"/>
    </vehicle>
    <vehicle id="veh29" depart="29.00" departLane="best" departPos="random" departSpeed="max">
        <route edges="-340749275 340749275 229346897 341907343#0 4230630#0 4230630#1 -4211638#14 -4211638#13 -4211638#12 -4211638#11 -4211638#10 -4211638#8 -4211638#6 -4211638#5"/>
    </vehicle>
    <vehicle id="veh30" depart="30.00" departLane="best" departPos="random" departSpeed="max">
        <route edges="938483226#2 938483226#3 3390782 3390780#2 3390785#0"/>
    </vehicle>
    <vehicle id="veh31" depart="31.00" departLane="best" departPos="random" departSpeed="max">
        <route edges="199089178#2 199089178#3 3454239#0 3454239#1 10437232#1 10437232#2 4212438#0 4212437#2 4212437#3 -4230627#1 -4230627#0 341907345#1"/>
    </vehicle>
    <vehicle id="veh32" depart="32.00" departLane="best" departPos="random" departSpeed="max">
        <route edges="4211638#14 -4230630#1 -4230630#0 341907343#1 4230631 -340749275 -4230629#0 3527431#0 3527431#1"/>
    </vehicle>
    <vehicle id="veh33" depart="33.00" departLane="best" departPos="random" departSpeed="max">
        <route edges="-3431090#1 -3431090#0 -334699573#0 3390786#1 3390786#2 1271488032 -1271488031#2"/>
    </vehicle>
    <vehicle id="veh34" depart="34.00" departLane="best" departPos="random" departSpeed="max">
        <route edges="-3527437#7 -4212447#1 -4212447#0 3527422#0 3527422#1 -3527422#1 -3527422#0"/>
    </vehicle>
    <vehicle id="veh35" depart="35.00" departLane="best" departPos="random" departSpeed="max">
        <route edges="-3426740#5 -3426740#3 -3426740#2 -3426740#1 3426740#1 3426740#2 3426740#3 3426740#5 3426740#7 3426740#8 -3454238#3 -3454238#2 4211638#11 4211638#12 4211638#13 4211638#14 -4230630#1 -4230630#0 341907343#1 4230631 -340749275 340749276#0 340749276#1 4230628"/>
    </vehicle>
    <vehicle id="veh36" depart="36.00" departLane="best" departPos="random" departSpeed="max">
        <route edges="4211638#5 4211638#6 4211638#8 4211638#10 -3454238#1 -3454238#0 -3454239#1 -3454239#0 -3390777#1 1271488032 938483226#2 -809464476#2 -809464476#1 -3527437#0 -693620818 -360618900#3 -360618900#1 -360618900#0"/>
    </vehicle>
    <vehicle id="veh37" depart="37.00" departLane="best" departPos="random" departSpeed="max">
        <route edges="3390786#1 -3390778#1 -199089178#4 3454239#0 3454239#1 10437232#1 10437232#2 4212438#0 4212438#1 -4212438#1"/>
    </vehicle>
    <vehicle id="veh38" depart="38.00" departLane="best" departPos="random" departSpeed="max">
        <route edges="4212438#0 -4212438#0 -10437232#2 -10437232#1 -3454239#1 -3454239#0 -3390777#1 1271488032 938483226#2 -938483226#2"/>
    </vehicle>
    <vehicle id="veh39" depart="39.00" departLane="best" departPos="random" departSpeed="max">
        <route edges="-3454256#0 -340749276#2 -340749276#1 -340749276#0 340749275 229346897 341907343#0 4230630#0 4230630#1 -4211638#14 -4211638#13 -4211638#12 -4211638#11 3454238#2 3454238#3 -3454238#3 -3454238#2"/>
    </vehicle>
    <vehicle id="veh40" depart="40.00" departLane="best" departPos="random" departSpeed="max">
        <route edges="199089178#3 3454239#0 3454239#1 3454238#0 3454238#1 4211638#11 4211638#12 4211638#13 4211638#14 -4230630#1 -4230630#0 341907343#1 4230631 -340749275 -4230629#0 3527431#0 3527431#1 -3454256#1"/>
    </vehicle>
    <vehicle id="veh41" depart="41.00" departLane="best" departPos="random" departSpeed="max">
        <route edges="234418248#1 3390786#0 3390779 334699573#1 -333167777#4 -333167777#3 -333167777#2 -333167777#0 -3454237 -4211638#23 -4211638#22 4212436#0 4212436#1"/>
    </vehicle>
    <vehicle id="veh42" depart="42.00" departLane="best" departPos="random" departSpeed="max">
        <route edges="-4212438#0 -10437232#2 -10437232#1 3454238#0 3454238#1 3454238#2 3454238#3 -3426740#8"/>
    </vehicle>
    <vehicle id="veh43" depart="43.00" departLane="best" departPos="random" departSpeed="max">
        <route edges="938483226#5 938483226#6 -938483226#6 -938483226#5 -938483226#3 -938483226#2 -1271488031#2 -1271488031#1 -234418248#1 -266635495#2 -266635495#1 -266635495#0 1387200177#0"/>
    </vehicle>
    <vehicle id="veh44" depart="44.00" departLane="best" departPos="random" departSpeed="max">
        <route edges="-199089178#6 -199089178#5 3390778#1 3390786#2 1271488032 -1271488031#2 -1271488031#1 -234418248#1 3527437#5 -4212447#1 -4212447#0 -1387200177#1"/>
    </vehicle>
    <vehicle id="veh45" depart="45.00" departLane="best" departPos="random" departSpeed="max">
        <route edges="-266635495#2 -266635495#1 -266635495#0 266635495#0 266635495#1 266635495#2 234418248#1 1271488031#1 1271488031#2 938483226#2 938483226#3 3390782 3390780#2 3390780#3"/>
    </vehicle>
    <vehicle id="veh46" depart="46.00" departLane="best" departPos="random" departSpeed="max">
        <route edges="3527437#3 3527437#4 234418248#1 3390786#0 3390779 334699573#1 -333167777#4 -333167777#3 -333167777#2 -333167777#0 -3454237 -4211638#23 -4211638#22 -4211638#19 -4211638#18 -4211638#17 -4230630#1"/>
    </vehicle>
    <vehicle id="veh47" depart="47.00" departLane="best" departPos="random" departSpeed="max">
        <route edges="-1388522632#6 -1388522632#5 -1388522632#4 -1388522632#3 -1388522632#2 -1388522632#0 -3454238#3 -3454238#2 -4211638#10 -4211638#8 -4211638#6"/>
    </vehicle>
    <vehicle id="veh48" depart="48.00" departLane="best" departPos="random" departSpeed="max">
        <route edges="938483226#3 3390782 3390780#2 3390785#0 199089178#3 3454239#0 3454239#1 3454238#0 3454238#1 3454238#2 3454238#3 3454238#4 1388522632#2 1388522632#3 1388522632#4 1388522632#5 1388522632#6"/>
    </vehicle>
    <vehicle id="veh49" depart="49.00" departLane="best" departPos="random" departSpeed="max">
        <route edges="809464476#2 938483226#3 3390782 3390780#2 3390785#0 199089178#3 3454239#0 3454239#1 3454238#0 3454238#1 -4211638#10 -4211638#8 -4211638#6 -4211638#5 -4211638#4 -4211638#3 -4211638#2 -4211638#1 -4211638#0 531706366 4211638#1 4211638#2"/>
    </vehicle>
    <vehicle id="veh50" depart="50.00" departLane="best" departPos="random" departSpeed="max">
        <route edges="-10437232#4 -10437232#3 4212438#0 4212438#1 4212436#2 4212436#3 -4211638#14 -4211638#13 -4211638#12 -4211638#11 -4211638#10 -4211638#8 3454236#0"/>
    </vehicle>
    <vehicle id="veh51" depart="51.00" departLane="best" departPos="random" departSpeed="max">
        <route edges="341907343#1 -341907343#1 4230630#0 4230630#1 -4211638#14 -4211638#13 -4211638#12 -4211638#11 -3454238#1 -3454238#0 -3454239#1 -3454239#0 -3390777#1 1271488032 938483226#2 -809464476#2 -809464476#1 -3527437#0 -693620818 -360618900#3 160723616"/>
    </vehicle>
    <vehicle id="veh52" depart="52.00" departLane="best" departPos="random" departSpeed="max">
        <route edges="-3454256#1 -3454256#0 -340749276#2 4230628 229345315#1 341907345#0 4230627#0 4230627#1 4211638#22 4211638#23 3454237 333167777#0 333167777#2 333167777#3 333167777#4 -199089178#6 -199089178#5 3390778#1 3390786#2 1271488032 -1271488031#2 -1271488031#1 3390786#0"/>
    </vehicle>
    <vehicle id="veh53" depart="53.00" departLane="best" departPos="random" departSpeed="max">
        <route edges="-333167777#0 -3454237 3454237 333167777#0 333167777#2 333167777#3 333167777#4 -199089178#6 -199089178#5 3390778#1 3390786#2 1271488032 938483226#2 -809464476#2 -809464476#1"/>
    </vehicle>
    <vehicle id="veh54" depart="54.00" departLane="best" departPos="random" departSpeed="max">
        <route edges="-925103863#4 -925103863#3 -925103863#1 -925103863#0 925103863#0 925103863#1 925103863#3 925103863#4 925103863#5 3454238#0 3454238#1 4211638#11 4211638#12 4211638#13 4211638#14 -4230630#1 -4230630#0 4230630#0 4230630#1"/>
    </vehicle>
    <vehicle id="veh55" depart="55.00" departLane="best" departPos="random" departSpeed="max">
        <route edges="4211638#5 4211638#6 4211638#8 4211638#10 4211638#11 4211638#12 4211638#13 4211638#14 -4230630#1 -4230630#0 341907343#1 4230631 -340749275 -4230629#0 3527431#0 3527431#1 -3454256#1"/>
    </vehicle>
    <vehicle id="veh56" depart="56.00" departLane="best" departPos="random" departSpeed="max">
        <route edges="1271488031#1 1271488031#2 -1271488031#2 -1271488031#1 3390786#0 3390779 334699573#1 -333167777#4 -333167777#3 -333167777#2 -333167777#0 -3454237 -4211638#23 -4211638#22 -4230627#1 -4230627#0 341907345#1 229345315#0 -4230628 340749276#2 -340749276#2"/>
    </vehicle>
    <vehicle id="veh57" depart="57.00" departLane="best" departPos="random" departSpeed="max">
        <route edges="4212437#3 4211638#22 4211638#23 4211638#24"/>
    </vehicle>
    <vehicle id="veh58" depart="58.00" departLane="best" departPos="random" departSpeed="max">
        <route edges="-3527437#10 -3527437#9 -3527437#8 -3527437#7 -3527437#5 234418248#1 1271488031#1 1271488031#2 938483226#2 938483226#3 3390782 3390780#2 3390785#0"/>
    </vehicle>
    <vehicle id="veh59" depart="59.00" departLane="best" departPos="random" departSpeed="max">
        <route edges="333167777#3 333167777#4 -199089178#6 -199089178#5 -199089178#4 -199089178#3 -3390785#0 -3390780#2"/>
    </vehicle>
    <vehicle id="veh60" depart="60.00" departLane="best" departPos="random" departSpeed="max">
        <route edges="3454256#1 -3527431#1 -3527431#0 4230629#0 340749275 229346897 341907343#0 4230630#0 4230630#1 -4211638#14 -4211638#13 -4211638#12 -4211638#11 -3454238#1 -3454238#0 -3454239#1 -3454239#0 -3390777#1 1271488032 938483226#2 -809464476#2 -809464476#1 -3527437#0 -693620818 -360618900#3 160723616"/>
    </vehicle>
    <vehicle id="veh61" depart="61.00" departLane="best" departPos="random" departSpeed="max">
        <route edges="3527437#0 809464476#1 809464476#2 938483226#3 3390782 3390780#2 3390785#0 199089178#3 3454239#0 3454239#1 3454238#0 3454238#1 3454238#2 3454238#3 3454238#4 1388522632#2 1388522632#3 1388522632#4 1388522632#5 1388522632#6"/>
    </vehicle>
    <vehicle id="veh62" depart="62.00" departLane="best" departPos="random" departSpeed="max">
        <route edges="-10437232#1 3454238#0 3454238#1 -4211638#10 -4211638#8 -4211638#6 -4211638#5 -4211638#4 -4211638#3 -4211638#2 -4211638#1 -4211638#0"/>
    </vehicle>
    <vehicle id="veh63" depart="63.00" departLane="best" departPos="random" departSpeed="max">
        <route edges="-1080916208#2 -1080916208#0 1080916208#0 1080916208#2 4212447#0"/>
    </vehicle>
    <vehicle id="veh64" depart="64.00" departLane="best" departPos="random" departSpeed="max">
        <route edges="4211638#6 4211638#8 4211638#10"/>
    </vehicle>
    <vehicle id="veh65" depart="65.00" departLane="best" departPos="random" departSpeed="max">
        <route edges="-3527437#3 -3527437#2 -3527437#1 809464476#1 809464476#2 938483226#3 3390782 3390780#2 3390785#0 199089178#3 3454239#0 3454239#1 3454238#0 3454238#1 3454238#2 3454238#3 3454238#4 1388522632#2 1388522632#3 1388522632#4 1388522632#5 1388522632#6 -1388522632#6 -1388522632#5 -1388522632#4 -1388522632#3"/>
    </vehicle>
    <vehicle id="veh66" depart="66.00" departLane="best" departPos="random" departSpeed="max">
        <route edges="4211638#5 4211638#6 4211638#8 4211638#10 4211638#11 4211638#12 4211638#13 4211638#14 -4230630#1 -4230630#0 341907343#1 4230631 -340749275 -4230629#0 3527431#0 3527431#1 -3527431#1 -3527431#0 4230629#0"/>
    </vehicle>
    <vehicle id="veh67" depart="67.00" departLane="best" departPos="random" departSpeed="max">
        <route edges="-199089178#4 -3390777#1 1271488032 -1271488031#2 -1271488031#1 -234418248#1 3527437#5 -4212447#1 -4212447#0 -1080916208#2 -1080916208#0 1080916208#0 1080916208#2"/>
    </vehicle>
    <vehicle id="veh68" depart="68.00" departLane="best" departPos="random" departSpeed="max">
        <route edges="-160723616 360618900#3 693620818 3527437#0 809464476#1 809464476#2 -938483226#2 -1271488031#2 -1271488031#1 3390786#0 3390779 334699573#1 -333167777#4 -333167777#3 -333167777#2 -333167777#0 -3454237 -4211638#23 -4211638#22 -4230627#1 -4230627#0 341907345#1 229345315#0 -4230628 340749276#2 3454256#0 3454256#1"/>
    </vehicle>
    <vehicle id="veh69" depart="69.00" departLane="best" departPos="random" departSpeed="max">
        <route edges="3527422#0 3527422#1 -3527422#1 -3527422#0 4212447#0 4212447#1 -3527437#5 234418248#1 3390786#0 3390779 334699573#1 -333167777#4"/>
    </vehicle>
    <vehicle id="veh70" depart="70.00" departLane="best" departPos="random" departSpeed="max">
        <route edges="10437232#1 10437232#2 -10437232#2 -10437232#1 -3454239#1 -3454239#0 -199089178#3 199089178#3"/>
    </vehicle>
    <vehicle id="veh71" depart="71.00" departLane="best" departPos="random" departSpeed="max">
        <route edges="-3454256#0 -340749276#2 4230628 229345315#1 341907345#0 4230627#0 4230627#1 4211638#22 4211638#23 4211638#24"/>
    </vehicle>
    <vehicle id="veh72" depart="72.00" departLane="best" departPos="random" departSpeed="max">
        <route edges="-4230629#0 3527431#0 3527431#1 -3527431#1 -3527431#0 4230629#0 340749275 229346897 341907343#0 4230630#0 4230630#1 -4211638#14 -4211638#13 -4211638#12 -4211638#11 3454238#2 3454238#3 -3426740#8 -3426740#7 -3426740#5"/>
    </vehicle>
    <vehicle id="veh73" depart="73.00" departLane="best" departPos="random" departSpeed="max">
        <route edges="1388522632#5 1388522632#6 -1388522632#6 -1388522632#5 -1388522632#4 -1388522632#3 -1388522632#2 -1388522632#0 -3454238#3 -3454238#2 4211638#11 4211638#12 4211638#13 4211638#14 4211638#17 4211638#18 4211638#19 4211638#22 4211638#23 3454237"/>
    </vehicle>
    <vehicle id="veh74" depart="74.00" departLane="best" departPos="random" departSpeed="max">
        <route edges="-3426740#2 -3426740#1 3426740#1 3426740#2 3426740#3 3426740#5 3426740#7 3426740#8 -3454238#3 -3454238#2 -3454238#1 -3454238#0 -3454239#1 -3454239#0 -3390777#1 1271488032 -1271488031#2 -1271488031#1 -234418248#1 3527437#5 3527437#7 3527437#8 3527437#9 3527437#10 -3527437#10 -3527437#9"/>
    </vehicle>
    <vehicle id="veh75" depart="75.00" departLane="best" departPos="random" departSpeed="max">
        <route edges="938483226#3 3390782 3390780#2 3390785#0 199089178#3 199089178#4 3390778#1 3390786#2"/>
    </vehicle>
    <vehicle id="veh76" depart="76.00" departLane="best" departPos="random" departSpeed="max">
        <route edges="-809464476#1 809464476#1 809464476#2 938483226#3 3390782 3390780#2 3390785#0 199089178#3 3454239#0 3454239#1 3454238#0 3454238#1 3454238#2 3454238#3 3454238#4 1388522632#2"/>
    </vehicle>
    <vehicle id="veh77" depart="77.00" departLane="best" departPos="random" departSpeed="max">
        <route edges="-333167777#3 -333167777#2 333167777#2 333167777#3 333167777#4 -334699573#1 3431090#0 3431090#1 -3431090#1 -3431090#0"/>
    </vehicle>
    <vehicle id="veh78" depart="78.00" departLane="best" departPos="random" departSpeed="max">
        <route edges="-4211638#10 -4211638#8 4211638#8 4211638#10 -3454238#1 -3454238#0 -3454239#1 -3454239#0 -3390777#1 1271488032 -1271488031#2 -1271488031#1 -234418248#1 -266635495#2 -266635495#1 -266635495#0 266635495#0 266635495#1 266635495#2"/>
    </vehicle>
    <vehicle id="veh79" depart="79.00" departLane="best" departPos="random" departSpeed="max">
        <route edges="-3454236#0 4211638#8 4211638#10 3454238#2 3454238#3 3426740#9 -3426740#9"/>
    </vehicle>
    <vehicle id="veh80" depart="80.00" departLane="best" departPos="random" departSpeed="max">
        <route edges="-160723616 360618900#3 693620818 3527437#0 809464476#1 809464476#2 938483226#3 3390782"/>
    </vehicle>
    <vehicle id="veh81" depart="81.00" departLane="best" departPos="random" departSpeed="max">
        <route edges="-3431090#1 -3431090#0 334699573#1 -333167777#4 -333167777#3 -333167777#2 -10437232#5 -10437232#4 -10437232#3 4212438#0 4212438#1 4212436#2 4212436#3"/>
    </vehicle>
    <vehicle id="veh82" depart="82.00" departLane="best" departPos="random" departSpeed="max">
        <route edges="4211638#2 4211638#3 4211638#4 4211638#5 4211638#6 4211638#8 4211638#10 3454238#2 3454238#3 3454238#4 1388522632#2 1388522632#3 1388522632#4 1388522632#5 1388522632#6 -1388522632#6"/>
    </vehicle>
    <vehicle id="veh83" depart="83.00" departLane="best" departPos="random" departSpeed="max">
        <route edges="-3454237 -4211638#23 -4211638#22 -4230627#1 -4230627#0 341907345#1 229345315#0 -4230628 340749276#2 340749276#3"/>
    </vehicle>
    <vehicle id="veh84" depart="84.00" departLane="best" departPos="random" departSpeed="max">
        <route edges="-3426740#7 -3426740#5 -3426740#3 -3426740#2 -3426740#1 3426740#1 3426740#2 3426740#3 3426740#5 3426740#7 3426740#8 -3454238#3 -3454238#2 -3454238#1 -3454238#0 -3454239#1 -3454239#0 199089178#4 199089178#5 199089178#6 -334699573#1 -334699573#0"/>
    </vehicle>
    <vehicle id="veh85" depart="85.00" departLane="best" departPos="random" departSpeed="max">
        <route edges="4230628 229345315#1"/>
    </vehicle>
    <vehicle id="veh86" depart="86.00" departLane="best" departPos="random" departSpeed="max">
        <route edges="-938483226#6 -938483226#5 -938483226#3 -809464476#2 -809464476#1 -3527437#0 -693620818 -360618900#3 360618900#3 693620818 3527437#0"/>
    </vehicle>
    <vehicle id="veh87" depart="87.00" departLane="best" departPos="random" departSpeed="max">
        <route edges="3527437#9 3527437#10 -3527437#10 -3527437#9 -3527437#8 -3527437#7 -3527437#5 234418248#1 3390786#0 3390779 334699573#1 -333167777#4 -333167777#3 -333167777#2 -333167777#0 -3454237 -4211638#23 -4211638#22 -4211638#19 -4211638#18 -4211638#17 -4230630#1 -4230630#0 341907343#1 -341907343#1"/>
    </vehicle>
    <vehicle id="veh88" depart="88.00" departLane="best" departPos="random" departSpeed="max">
        <route edges="-234418248#1 -3527437#4 -3527437#3 -3527437#2 -3527437#1 -3527437#0 -693620818"/>
    </vehicle>
    <vehicle id="veh89" depart="89.00" departLane="best" departPos="random" departSpeed="max">
        <route edges="-4230629#0 3527431#0 3527431#1 -3527431#1 -3527431#0 4230629#0 340749275 229346897 341907343#0 4230630#0 4230630#1 -4211638#14 -4211638#13 -4211638#12 -4211638#11 -3454238#1 -3454238#0 -3454239#1 -3454239#0 -199089178#3 -3390785#0 -3390780#2 -3390782 938483226#5 938483226#6 -938483226#6 -938483226#5"/>
    </vehicle>
    <vehicle id="veh90" depart="90.00" departLane="best" departPos="random" departSpeed="max">
        <route edges="3454237 333167777#0 -10437232#5 -10437232#4 -10437232#3 4212438#0 4212438#1 4212436#2 4212436#3 -4230630#1 -4230630#0 -341907343#0 341907343#0"/>
    </vehicle>
    <vehicle id="veh91" depart="91.00" departLane="best" departPos="random" departSpeed="max">
        <route edges="925103863#4 925103863#5 -3454239#1 -3454239#0 199089178#4 199089178#5 199089178#6 -199089178#6"/>
    </vehicle>
    <vehicle id="veh92" depart="92.00" departLane="best" departPos="random" departSpeed="max">
        <route edges="-4212438#1 4212438#1 4212436#2 4212436#3 -4211638#14 -4211638#13 -4211638#12"/>
    </vehicle>
    <vehicle id="veh93" depart="93.00" departLane="best" departPos="random" departSpeed="max">
        <route edges="4211638#22 4211638#23 -4211638#23 -4211638#22 -4211638#19 -4211638#18 -4211638#17 -4211638#14 -4211638#13 -4211638#12 -4211638#11 3454238#2 3454238#3 -3454238#3"/>
    </vehicle>
    <vehicle id="veh94" depart="94.00" departLane="best" departPos="random" departSpeed="max">
        <route edges="-341907345#0 341907345#0 4230627#0 4230627#1 4212436#0 4212436#1 -4212438#1 -4212438#0 -10437232#2 -10437232#1 -925103863#5 -925103863#4 -925103863#3"/>
    </vehicle>
    <vehicle id="veh95" depart="95.00" departLane="best" departPos="random" departSpeed="max">
        <route edges="-4230628 340749276#2 3454256#0 3454256#1 3527431#2 -3527431#2"/>
    </vehicle>
    <vehicle id="veh96" depart="96.00" departLane="best" departPos="random" departSpeed="max">
        <route edges="-3454238#2 4211638#11 4211638#12 4211638#13 4211638#14 4212437#0 4212437#1 -4212438#0 4212438#0"/>
    </vehicle>
    <vehicle id="veh97" depart="97.00" departLane="best" departPos="random" departSpeed="max">
        <route edges="-809464476#2 -809464476#1 809464476#1 809464476#2 938483226#3 3390782 3390780#2 3390785#0 199089178#3 3454239#0 3454239#1 3454238#0 3454238#1 -4211638#10 -4211638#8 -4211638#6 -4211638#5 -4211638#4 -4211638#3 -4211638#2 -4211638#1 -4211638#0 531706366 4211638#1 4211638#2"/>