<?xml version="1.0" encoding="UTF-8"?>

<!-- generated on 2025-08-04 21:38:22 by Eclipse SUMO duarouter Version 1.24.0
<duarouterConfiguration xmlns:xsi="http://www.w3.org/2001/XMLSchema-instance" xsi:noNamespaceSchemaLocation="http://sumo.dlr.de/xsd/duarouterConfiguration.xsd">

    <input>
        <net-file value="synthetic.net.xml"/>
        <route-files value="synthetic.trips.xml"/>
    </input>

    <output>
        <output-file value="synthetic.rou.xml"/>
    </output>

</duarouterConfiguration>
-->

<routes xmlns:xsi="http://www.w3.org/2001/XMLSchema-instance" xsi:noNamespaceSchemaLocation="http://sumo.dlr.de/xsd/routes_file.xsd">
    <vehicle id="0" depart="0.00" departLane="best" departPos="random" departSpeed="max">
        <route edges="-1143 -879 -723 -595 -455 -333 -220 -192 -67 -33 -28 29 194 228 578 608 746 1386 1643 1991 -2253 -1989 -1643"/>
    </vehicle>
    <vehicle id="1" depart="2.50" departLane="best" departPos="random" departSpeed="max">
        <route edges="-3426 -3072 3073 -2819 -2471 -2144 -1775"/>
    </vehicle>
    <vehicle id="2" depart="5.00" departLane="best" departPos="random" departSpeed="max">
        <route edges="459 599 739 1001 1161 -1160"/>
    </vehicle>
    <vehicle id="3" depart="7.50" departLane="best" departPos="random" departSpeed="max">
        <route edges="-597 -459 455 595 721 -599"/>
    </vehicle>
    <vehicle id="4" depart="10.00" departLane="best" departPos="random" departSpeed="max">
        <route edges="3073 -2819 -2471 -2144"/>
    </vehicle>
    <vehicle id="5" depart="12.50" departLane="best" departPos="random" departSpeed="max">
        <route edges="-3187 -2139 -1773 -1150 -727 -597 -459 -333 -220 -192 -67 -33 -28 29 194 228 578 608 -740 -601"/>
    </vehicle>
    <vehicle id="6" depart="15.00" departLane="best" departPos="random" departSpeed="max">
        <route edges="-2365 -2130 2131 -1773 -1150 1160 -1161 -1001"/>
    </vehicle>
    <vehicle id="7" depart="17.50" departLane="best" departPos="random" departSpeed="max">
        <route edges="-3448 -3177 -2139 -1773 -1150 -727 -597 -459 -333 -220 -192 -67 -33 -28 29 194 228 578 608 746 1386 1643 1991 -2253 -1989 -1643"/>
    </vehicle>
    <vehicle id="8" depart="20.00" departLane="best" departPos="random" departSpeed="max">
        <route edges="-883 879 1143 1504 1755 2126 2363 2710 3073 -2819 -2471 -2144 -1775 -1610"/>
    </vehicle>
    <vehicle id="9" depart="22.50" departLane="best" departPos="random" departSpeed="max">
        <route edges="-2968 -2252 -1632 -1011 -742 -601 -572 -224 -204 -29 28 33 67 192 220 333 455 595 723 879 1143"/>
    </vehicle>
    <vehicle id="10" depart="25.00" departLane="best" departPos="random" departSpeed="max">
        <route edges="463 587 -453 -343 -218 -192 -67 -33 -28 -3 15 -17"/>
    </vehicle>
    <vehicle id="11" depart="27.50" departLane="best" departPos="random" departSpeed="max">
        <route edges="-177 -15 3 28 33 67 192 220 333 459 599 739 1001 1175 1610 1783 2148 2499 2862 3312"/>
    </vehicle>
    <vehicle id="12" depart="30.00" departLane="best" departPos="random" departSpeed="max">
        <route edges="-1135 -589 -463 -449 -343 -218 -192 -67 -33 -28 -3 5"/>
    </vehicle>
    <vehicle id="13" depart="32.50" departLane="best" departPos="random" departSpeed="max">
        <route edges="-742 -601 -572 -224 -204 -29 28 33 39 178 -45 -33"/>
    </vehicle>
    <vehicle id="14" depart="35.00" departLane="best" departPos="random" departSpeed="max">
        <route edges="2846 3304"/>
    </vehicle>
    <vehicle id="15" depart="37.50" departLane="best" departPos="random" departSpeed="max">
        <route edges="-3189 -3073 3072 3426"/>
    </vehicle>
    <vehicle id="16" depart="40.00" departLane="best" departPos="random" departSpeed="max">
        <route edges="-2131 -1759 -1607 -1161 1175 1610 1775 2140"/>
    </vehicle>
    <vehicle id="17" depart="42.50" departLane="best" departPos="random" departSpeed="max">
        <route edges="-589 -463 -449 -343 -331 -220 218 343"/>
    </vehicle>
    <vehicle id="18" depart="45.00" departLane="best" departPos="random" departSpeed="max">
        <route edges="-2968 -2252 -1632 -1011 -742 -601 -572 -224 -204 -29 28 33 67 192 220 333 459 599 739 1001"/>
    </vehicle>
    <vehicle id="19" depart="47.50" departLane="best" departPos="random" departSpeed="max">
        <route edges="218 -331 -220 -192 -67 -33 -28 29 204 224 572 601 742 1005 1280 1621"/>
    </vehicle>
    <vehicle id="20" depart="50.00" departLane="best" departPos="random" departSpeed="max">
        <route edges="1632 -1631 -1280 -1005 -742 -601 -572 -224 -204 -29 28 33 67 192 220 333 455 595 723 879 1143 1504 1755 2126 2363"/>
    </vehicle>
    <vehicle id="21" depart="52.50" departLane="best" departPos="random" departSpeed="max">
        <route edges="1504 1755 2126 2363 2712 -3072 -2710 -2363 -2126 -1755 -1504 -1143 -879 -723 -595 -455 -333 -220 -192 -67 45"/>
    </vehicle>
    <vehicle id="22" depart="55.00" departLane="best" departPos="random" departSpeed="max">
        <route edges="-3461 -3191 -2821 -2471 -2144 -1775 -1610 -1175 -1001 -739 -599 -459 -333 -220 -192 -67 -33 -28 29 204 224 572 601 742 1003 1617 2503"/>
    </vehicle>
    <vehicle id="23" depart="57.50" departLane="best" departPos="random" departSpeed="max">
        <route edges="-3304 -2846 -2499 -2148 -1783 -1610 -1175 -1001 997 -1146"/>
    </vehicle>
    <vehicle id="24" depart="60.00" departLane="best" departPos="random" departSpeed="max">
        <route edges="2131 -1773 -1150 -727 -597 -459 -333 -220 -192 -67 -33 -28 29 194 228 578 608 746 1396 1649 2009 -2255"/>
    </vehicle>
    <vehicle id="25" depart="62.50" departLane="best" departPos="random" departSpeed="max">
        <route edges="28 -25 -5 11 204 224 572"/>
    </vehicle>
    <vehicle id="26" depart="65.00" departLane="best" departPos="random" departSpeed="max">
        <route edges="1386 1633 -1396 -746 -740 -601 -572 -224"/>
    </vehicle>
    <vehicle id="27" depart="67.50" departLane="best" departPos="random" departSpeed="max">
        <route edges="-3187 -2139 -1773 -1150 1160 -1161 -1001 997 -1146 1145 -893"/>
    </vehicle>
    <vehicle id="28" depart="70.00" departLane="best" departPos="random" departSpeed="max">
        <route edges="-1175 -1001 -739 -721 723 883 1146"/>
    </vehicle>
    <vehicle id="29" depart="72.50" departLane="best" departPos="random" departSpeed="max">
        <route edges="-740 -601 -572 -224 -204 194 228 586 -602"/>
    </vehicle>
    <vehicle id="30" depart="75.00" departLane="best" departPos="random" departSpeed="max">
        <route edges="-2017 -1133 -750 -614 -602 608 746 1386 1643 1991 -2253 -1989 -1643"/>
    </vehicle>
    <vehicle id="31" depart="77.50" departLane="best" departPos="random" departSpeed="max">
        <route edges="1143 1504 1755 2126 2363 2712 -3072 -2710 -2363 -2126 -1755 -1504 -1143 -879 -723 -595 -455 -333 -220 -192 -67 -33 -28 29 -11"/>
    </vehicle>
    <vehicle id="32" depart="80.00" departLane="best" departPos="random" departSpeed="max">
        <route edges="-3197 -2821 -2471 -2144 2140 2148 2479 -2832"/>
    </vehicle>
    <vehicle id="33" depart="82.50" departLane="best" departPos="random" departSpeed="max">
        <route edges="-595 -455 459 599 739 1001 1175 1610 1775 2144 2471 2819 -3073 3072"/>
    </vehicle>
    <vehicle id="34" depart="85.00" departLane="best" departPos="random" departSpeed="max">
        <route edges="5 25 33 67 192 220 333 455 595 723 879 1143 1504 1755 2126 2363"/>
    </vehicle>
    <vehicle id="35" depart="87.50" departLane="best" departPos="random" departSpeed="max">
        <route edges="883 1145 -1144 -879 -723 721 739"/>
    </vehicle>
    <vehicle id="36" depart="90.00" departLane="best" departPos="random" departSpeed="max">
        <route edges="1144 -1145 1146 -997 1001 1175 1610 1783 2148 2499 2862 -3300 -2846"/>
    </vehicle>
    <vehicle id="37" depart="92.50" departLane="best" departPos="random" departSpeed="max">
        <route edges="-3461 -3191 -2821 -2471 -2144 -1775 -1610 -1175 -1001 -739 -599 -459 -333 -220 -192 -67 -33 -28 29 194 228 578 608 746 1396 1649 2009 -2254"/>
    </vehicle>
    <vehicle id="38" depart="95.00" departLane="best" departPos="random" departSpeed="max">
        <route edges="883 1145 -1144 -1139 -877 -720 718 855 877 1139"/>
    </vehicle>
    <vehicle id="39" depart="97.50" departLane="best" departPos="random" departSpeed="max">
        <route edges="2130 2367 -2713 -2365 -2130 2131 -1773 -1150 1160 -1161 1175 -1608 -1169"/>
    </vehicle>
    <vehicle id="40" depart="100.00" departLane="best" departPos="random" departSpeed="max">
        <route edges="-17 25 33 67 192 220 333 459 597 727 1150 1759 2130 2365 2713 -2367"/>
    </vehicle>
    <vehicle id="41" depart="102.50" departLane="best" departPos="random" departSpeed="max">
        <route edges="-2479 -2148 -1783 -1610 -1175 -1001 -739 -721"/>
    </vehicle>
    <vehicle id="42" depart="105.00" departLane="best" departPos="random" departSpeed="max">
        <route edges="-2503 -1617 -1003 -742 -601 -572 -224 -204 -29 28 33 67 192 218 343 449 463 589 1137"/>
    </vehicle>
    <vehicle id="43" depart="107.50" departLane="best" departPos="random" departSpeed="max">
        <route edges="-3438 -3177 -2139 -1773 -1150 -727 -597 -459 -333 -220 -192 -67 45 -178"/>
    </vehicle>
    <vehicle id="44" depart="110.00" departLane="best" departPos="random" departSpeed="max">
        <route edges="-1150 1160 -1161 -1001 997 -1146 1145 -1144 -879 -723"/>
    </vehicle>
    <vehicle id="45" depart="112.50" departLane="best" departPos="random" departSpeed="max">
        <route edges="-1504 -1143 -1139 -877 -720 -593 -587 589 1137"/>
    </vehicle>
    <vehicle id="46" depart="115.00" departLane="best" departPos="random" departSpeed="max">
        <route edges="-1011 -742 -601 -572 -224 -204 -29 28 33 67 192 220 333 459 597 727 1150 1759"/>
    </vehicle>
    <vehicle id="47" depart="117.50" departLane="best" departPos="random" departSpeed="max">
        <route edges="-1175 1169 1608 1610 1783 2148 2477 2832"/>
    </vehicle>
    <vehicle id="48" depart="120.00" departLane="best" departPos="random" departSpeed="max">
        <route edges="-3426 -2712 -2363 -2126 -1755 -1504 -1143 -1139 -877 -855 869"/>
    </vehicle>
    <vehicle id="49" depart="122.50" departLane="best" departPos="random" departSpeed="max">
        <route edges="-25 -5 11 204 224 572 601 742 1005 1278"/>
    </vehicle>
    <vehicle id="50" depart="125.00" departLane="best" departPos="random" departSpeed="max">
        <route edges="2130 2367 -2713 -2365 -2130 2131 -1773 -1150 -727 -597 -459 -333 -220 -192 -67 -33 -28 29 194 228 578 608 -740 -601"/>
    </vehicle>
    <vehicle id="51" depart="127.50" departLane="best" departPos="random" departSpeed="max">
        <route edges="-3197 -2821 -2471 -2144 -1775 -1610 -1175 -1001 997 -1146 1145 -1144 1143 1504 1755 2126 2363"/>
    </vehicle>
    <vehicle id="52" depart="130.00" departLane="best" departPos="random" departSpeed="max">
        <route edges="742 1011 -1611 -1003 -742 -601 -572 -224 -204 -29 28 33 39"/>
    </vehicle>
    <vehicle id="53" depart="132.50" departLane="best" departPos="random" departSpeed="max">
        <route edges="-3438 -3177 -2139 -1773 -1150 -727 -597 -459 -333 -220 -192 -67 -33 -28 29 204 224 572 601 742 1011 1632 2252 2968"/>
    </vehicle>
    <vehicle id="54" depart="135.00" departLane="best" departPos="random" departSpeed="max">
        <route edges="-2254 2253 -1991 -1643 -1386 -746 -740 742 1011 1632 -1631"/>
    </vehicle>
    <vehicle id="55" depart="137.50" departLane="best" departPos="random" departSpeed="max">
        <route edges="343 449 464 -451 -343 -218 -192 -67 -33 -28 29 194 228 578 608 746 1386 1633 -1396"/>
    </vehicle>
    <vehicle id="56" depart="140.00" departLane="best" departPos="random" departSpeed="max">
        <route edges="-578 -228 -177 -17 -5 15 177"/>
    </vehicle>
    <vehicle id="57" depart="142.50" departLane="best" departPos="random" departSpeed="max">
        <route edges="-1773 -1150 1160 -1161 1175 1610 1783 2148 2499"/>
    </vehicle>
    <vehicle id="58" depart="145.00" departLane="best" departPos="random" departSpeed="max">
        <route edges="578 602 -586 -228 -194 -29 28 33 67 192 220 331"/>
    </vehicle>
    <vehicle id="59" depart="147.50" departLane="best" departPos="random" departSpeed="max">
        <route edges="-3312 -2862 -2499 -2148 -1783 -1610 -1175 -1001 -739 -599 -459 -333 -220 -192 -67 -33 -28 29 194 228 578 608 746 1386 1643 1991 -2253 -1989"/>
    </vehicle>
    <vehicle id="60" depart="150.00" departLane="best" departPos="random" departSpeed="max">
        <route edges="746 1386 1633 -1396 -746 -740 742 1005 1280 1631"/>
    </vehicle>
    <vehicle id="61" depart="152.50" departLane="best" departPos="random" departSpeed="max">
        <route edges="1144 -893 879 1143 1504 1755 2126 2363 2712 3426"/>
    </vehicle>
    <vehicle id="62" depart="155.00" departLane="best" departPos="random" departSpeed="max">
        <route edges="-3312 -2862 -2499 -2148 -2140 2144 2471 2819 -3073 -2710 -2363 -2126 -1755 -1504"/>
    </vehicle>
    <vehicle id="63" depart="157.50" departLane="best" departPos="random" departSpeed="max">
        <route edges="-1755 -1504 -1143 -879 -723 -595 -455 -333 -220 -192 -67 -33 -28 29 204 224 572 601 742 1003 1617 2503"/>
    </vehicle>
    <vehicle id="64" depart="160.00" departLane="best" departPos="random" departSpeed="max">
        <route edges="-3197 3191 3461"/>
    </vehicle>
    <vehicle id="65" depart="162.50" departLane="best" departPos="random" departSpeed="max">
        <route edges="204 224 572 601 740 -608 -578 -228 -194 -29 28 33 67 192 218 343 453 593 718 854"/>
    </vehicle>
    <vehicle id="66" depart="165.00" departLane="best" departPos="random" departSpeed="max">
        <route edges="1607 -1150 -727 -597 -459 -333 331 343 451 -464"/>
    </vehicle>
    <vehicle id="67" depart="167.50" departLane="best" departPos="random" departSpeed="max">
        <route edges="2363 2712 -3072 -2710 -2363 -2126 -1755 -1504 -1143 1144 -1145"/>
    </vehicle>
    <vehicle id="68" depart="170.00" departLane="best" departPos="random" departSpeed="max">
        <route edges="-586 -228 -194 -29 28 33 67 192 220 333 459 599 739 1001 1175 1610 1775 2144 2471 2821 3191 3461"/>
    </vehicle>
    <vehicle id="69" depart="172.50" departLane="best" departPos="random" departSpeed="max">
        <route edges="-5 15 177 228 578 608 -740 -601 -572 -224 -204"/>
    </vehicle>
    <vehicle id="70" depart="175.00" departLane="best" departPos="random" departSpeed="max">
        <route edges="-453 -343 -331 333 459 599 739 1001 1175 1610 1775"/>
    </vehicle>
    <vehicle id="71" depart="177.50" departLane="best" departPos="random" departSpeed="max">
        <route edges="-3304 -2846 -2499 -2148 -1783 -1610 -1175 -1001 -739 -599 -459 -333 331 343 451"/>
    </vehicle>
    <vehicle id="72" depart="180.00" departLane="best" departPos="random" departSpeed="max">
        <route edges="-3188 -2819 -2471 -2144 -1775 -1610 -1175 -1001 -739 -599 -459 -333"/>
    </vehicle>
    <vehicle id="73" depart="182.50" departLane="best" departPos="random" departSpeed="max">
        <route edges="-459 455 595 721 739 1001 1175 1610 1783 2148 2499 2846 3300 -2862 -2499"/>
    </vehicle>
    <vehicle id="74" depart="185.00" departLane="best" departPos="random" departSpeed="max">
        <route edges="-2968 -2252 -1632 -1011 -742 -601 -572 -224 -204 -29 28 33 67 192 220 333 459 599 739 1001"/>
    </vehicle>
    <vehicle id="75" depart="187.50" departLane="best" departPos="random" departSpeed="max">
        <route edges="601 742 1005 1280 1631 -1632"/>
    </vehicle>
    <vehicle id="76" depart="190.00" departLane="best" departPos="random" departSpeed="max">
        <route edges="-212 -193 192 220 333 459 597 727 1150 1773 2139 3187 3449 -2844 -2479"/>
    </vehicle>
    <vehicle id="77" depart="192.50" departLane="best" departPos="random" departSpeed="max">
        <route edges="893 -1144 -879 -723 -595 -455 -333 -220 -192 -67 45"/>
    </vehicle>
    <vehicle id="78" depart="195.00" departLane="best" departPos="random" departSpeed="max">
        <route edges="-208 -192 -67 -33 -28 29 194 228 578 608 746 1386 1643 1989"/>
    </vehicle>
    <vehicle id="79" depart="197.50" departLane="best" departPos="random" departSpeed="max">
        <route edges="-1396 -746 -608 -578 -228 -194 -29 28 33 67 192 218 343 453 -587"/>
    </vehicle>
    <vehicle id="80" depart="200.00" departLane="best" departPos="random" departSpeed="max">
        <route edges="-3189 -2819 -2471 -2144 -1775 -1610 -1175 -1001 -739 -599 -459 -333 -220 -192 -67 -33 -28 -3 15 177"/>
    </vehicle>
    <vehicle id="81" depart="202.50" departLane="best" departPos="random" departSpeed="max">
        <route edges="595 721 -599 -459 -333 331 343"/>
    </vehicle>
    <vehicle id="82" depart="205.00" departLane="best" departPos="random" departSpeed="max">
        <route edges="-595 -455 459 599 739 1001 1175 1610 1783 2148 2499 2862 3312"/>
    </vehicle>
    <vehicle id="83" depart="207.50" departLane="best" departPos="random" departSpeed="max">
        <route edges="-3461 -3191 -2821 -2471 -2144 2140 2148 2479 2844 -3449 -3187 3177"/>
    </vehicle>
    <vehicle id="84" depart="210.00" departLane="best" departPos="random" departSpeed="max">
        <route edges="2832 2844 -3449 -3187 -2139 -1773 -1150 -727 -597 -459 -333 -220 -192 -67 -33 -28 29 194 228 586 614 750 1133 2017"/>
    </vehicle>
    <vehicle id="85" depart="212.50" departLane="best" departPos="random" departSpeed="max">
        <route edges="-3461 -3191 -3188 -3073 -2710 -2363 -2126 -1755 -1504 -1143 -879 883 1146 -997"/>
    </vehicle>
    <vehicle id="86" depart="215.00" departLane="best" departPos="random" departSpeed="max">
        <route edges="-220 -192 -67 -33 -28 29 204 224 572 601 742 1003 1617"/>
    </vehicle>
    <vehicle id="87" depart="217.50" departLane="best" departPos="random" departSpeed="max">
        <route edges="-1633 -1386 -746 -608 -578 -228 -177 -15 11 194 228"/>
    </vehicle>
    <vehicle id="88" depart="220.00" departLane="best" departPos="random" departSpeed="max">
        <route edges="455 595 721 739 1001 1175 1610 1783 2148 2499 2862 3312"/>
    </vehicle>
    <vehicle id="89" depart="222.50" departLane="best" departPos="random" departSpeed="max">
        <route edges="1003 1611 -1011 -742 -601 -572 -224 -204 -29 28 33 67 192 220 333 459 599 739 1001 1175 1610"/>
    </vehicle>
    <vehicle id="90" depart="225.00" departLane="best" departPos="random" departSpeed="max">
        <route edges="17 177 -194"/>
    </vehicle>
    <vehicle id="91" depart="227.50" departLane="best" departPos="random" departSpeed="max">
        <route edges="-1143 -879 -723 -595 -455 459 597 727 1150 1773 2139 3187 3457"/>
    </vehicle>
    <vehicle id="92" depart="230.00" departLane="best" departPos="random" departSpeed="max">
        <route edges="-33 -28 29 204 224 572 601 742 1003 1617 2503"/>
    </vehicle>
    <vehicle id="93" depart="232.50" departLane="best" departPos="random" departSpeed="max">
        <route edges="-3438 -3177 -2139 -1773 -1150 -727"/>
    </vehicle>
    <vehicle id="94" depart="235.00" departLane="best" departPos="random" departSpeed="max">
        <route edges="2131 2139 3177 3438"/>
    </vehicle>
    <vehicle id="95" depart="237.50" departLane="best" departPos="random" departSpeed="max">
        <route edges="-2017 -1133 -750 -614 -586 578 602 614 750"/>
    </vehicle>
    <vehicle id="96" depart="240.00" departLane="best" departPos="random" departSpeed="max">
        <route edges="-1150 -727 -597 -459 -333 331 343 449 463 589 1135"/>
    </vehicle>
    <vehicle id="97" depart="242.50" departLane="best" departPos="random" departSpeed="max">
        <route edges="-453 -343 -331 333 459 597 727 1150 1773 2139 3177 3448"/>
    </vehicle>
    <vehicle id="98" depart="245.00" departLane="best" departPos="random" departSpeed="max">
        <route edges="-2009 -1649 -1396 -746 -608 -578 -228 -194 -29 28 33 67 193"/>
    </vehicle>
    <vehicle id="99" depart="247.50" departLane="best" departPos="random" departSpeed="max">
        <route edges="-3304 -2846 -2499 -2148 -1783 -1610 -1175 -1001 -739 -599 -459 -333 331 343 449 463 587"/>
    </vehicle>
    <vehicle id="100" depart="250.00" departLane="best" departPos="random" departSpeed="max">
        <route edges="-1632 -1011 -742 -601 -572 -224 -204 -29 28 33 39 178 -45 -33"/>
    </vehicle>
    <vehicle id="101" depart="252.50" departLane="best" departPos="random" departSpeed="max">
        <route edges="2713 -2367 -2130 2131 -1773 -1150 1160 -1161 -1001 997 -1146 1145 -1144 -1139 -877 -720 -593"/>
    </vehicle>
    <vehicle id="102" depart="255.00" departLane="best" departPos="random" departSpeed="max">
        <route edges="608 -740 742 1011 1632 -1631 -1280"/>
    </vehicle>
    <vehicle id="103" depart="257.50" departLane="best" departPos="random" departSpeed="max">
        <route edges="-3312 -2862 -2499 -2148 -2140 -1775"/>
    </vehicle>
    <vehicle id="104" depart="260.00" departLane="best" departPos="random" departSpeed="max">
        <route edges="-742 -601 -572 -224 -204 -29 28 33 67 192 220 333 459 597 727"/>
    </vehicle>
    <vehicle id="105" depart="262.50" departLane="best" departPos="random" departSpeed="max">
        <route edges="-3 5 25 33 67 192 220 333 459 599 739 1001 1175 1610 1775 2144 2471"/>
    </vehicle>
    <vehicle id="106" depart="265.00" departLane="best" departPos="random" departSpeed="max">
        <route edges="-2503 -1617 -1003 -742 -601 -572 -224 -204 -29 28 33 67 192 218 343 449 463 589 1137"/>
    </vehicle>
    <vehicle id="107" depart="267.50" departLane="best" departPos="random" departSpeed="max">
        <route edges="-740 -601 -572 -224 -204 -29 28 33 67 192 220 333 459 599 739 1001 1175 1610 1775 2144 2471 2819 -3073"/>
    </vehicle>
    <vehicle id="108" depart="270.00" departLane="best" departPos="random" departSpeed="max">
        <route edges="1643 1991 -2253 -1989 -1643 -1386 -746 -740 742 1003 1617"/>
    </vehicle>
    <vehicle id="109" depart="272.50" departLane="best" departPos="random" departSpeed="max">
        <route edges="463 587 -453 -343"/>
    </vehicle>
    <vehicle id="110" depart="275.00" departLane="best" departPos="random" departSpeed="max">
        <route edges="720 877 1139 -879 -723 -595 -455 -333 -220 -192 -67 -33 -28 29 194 228 578 608 746 1396 1649 2009 -2255"/>
    </vehicle>
    <vehicle id="111" depart="277.50" departLane="best" departPos="random" departSpeed="max">
        <route edges="-1135 -589 -463 -449 -343 -218 -192 -67 -33 -28 29 204 224 572 601 742 1003 1617 2503"/>
    </vehicle>
    <vehicle id="112" depart="280.00" departLane="best" departPos="random" departSpeed="max">
        <route edges="1991 -2253 2254 -2009 -1649 -1396 1386"/>
    </vehicle>
    <vehicle id="113" depart="282.50" departLane="best" departPos="random" departSpeed="max">
        <route edges="-1137 -589 -463 -449 -343 -331 333 459 599 739 997"/>
    </vehicle>
    <vehicle id="114" depart="285.00" departLane="best" departPos="random" departSpeed="max">
        <route edges="-177 -15 3 28 33 67 192 220 333 459 599 739 1001 1175 1610 1775 2144 2471 2821 3191 3461"/>
    </vehicle>
    <vehicle id="115" depart="287.50" departLane="best" departPos="random" departSpeed="max">
        <route edges="45 -178 -39 67 192 220 333 455 595 723 879 1143 1504 1755 2126 2363 2710 3073 -2819"/>
    </vehicle>
    <vehicle id="116" depart="290.00" departLane="best" departPos="random" departSpeed="max">
        <route edges="3189 -2831 -2471 -2144 -1775 -1610 -1175 1161"/>
    </vehicle>
    <vehicle id="117" depart="292.50" departLane="best" departPos="random" departSpeed="max">
        <route edges="455 595 721 -599 -459 -333 331 343 449"/>
    </vehicle>
    <vehicle id="118" depart="295.00" departLane="best" departPos="random" departSpeed="max">
        <route edges="224 572 601 740 -608 -578 -228 -194 -29 28 33 67 192 218 343 449 464 -451"/>
    </vehicle>
    <vehicle id="119" depart="297.50" departLane="best" departPos="random" departSpeed="max">
        <route edges="-750 -614 -586 -228 -194 -29 28 33 67 192 218 343 453 593 718 855"/>
    </vehicle>
    <vehicle id="120" depart="300.00" departLane="best" departPos="random" departSpeed="max">
        <route edges="-2968 -2252 -1632 -1011 -742 -601 -572 -224 -204 -29 28 33 67 192 218 343 453 593 720 877 1139 -879"/>
    </vehicle>
    <vehicle id="121" depart="302.50" departLane="best" departPos="random" departSpeed="max">
        <route edges="1633 -1396 -746 -608 -578 -228 -194 -29 28 33 67 192 220 333 459 599 739 1001 1175 1610 1775 2144 2471 2819 -3073 -2710 -2363 -2126 -1755 -1504"/>
    </vehicle>
    <vehicle id="122" depart="305.00" departLane="best" departPos="random" departSpeed="max">
        <route edges="-2477 -2148 -1783 -1610 -1175 -1001 -739 -599 -459 -333 -220"/>
    </vehicle>
    <vehicle id="123" depart="307.50" departLane="best" departPos="random" departSpeed="max">
        <route edges="-3438 -3177 -2139 -1773 -1150 -727 -597 -459 -333 331 343 449 463 589 1135"/>
    </vehicle>
    <vehicle id="124" depart="310.00" departLane="best" departPos="random" departSpeed="max">
        <route edges="1003 1611"/>
    </vehicle>
    <vehicle id="125" depart="312.50" departLane="best" departPos="random" departSpeed="max">
        <route edges="-194 -29 28 33 67 192 220 333 459 599 739 1001 1169 1608 -1175"/>
    </vehicle>
    <vehicle id="126" depart="315.00" departLane="best" departPos="random" departSpeed="max">
        <route edges="-587 -463 -449 -343 -331 333 459 599 739 1001 1175 1610 1783 2148 2499 2846 3304"/>
    </vehicle>
    <vehicle id="127" depart="317.50" departLane="best" departPos="random" departSpeed="max">
        <route edges="593 720 877 1139 -879 -723 -595 -455 459 597 727 1150 1773 2139 3187 3449"/>
    </vehicle>
    <vehicle id="128" depart="320.00" departLane="best" departPos="random" departSpeed="max">
        <route edges="-2846 -2499 2479 2844 -3449 3457"/>
    </vehicle>
    <vehicle id="129" depart="322.50" departLane="best" departPos="random" departSpeed="max">
        <route edges="-3457 -3187 -2139 -1773 -1150 -727 -597 -459 -333 -220 208 -212 -184 -39"/>
    </vehicle>
    <vehicle id="130" depart="325.00" departLane="best" departPos="random" departSpeed="max">
        <route edges="-1607 -1161 -1001 997 -1146 1145 -1144 -1139 -877 -855 854 1138"/>
    </vehicle>
    <vehicle id="131" depart="327.50" departLane="best" departPos="random" departSpeed="max">
        <route edges="-602 -578 -228 -194 -29 28 33 67 192 220 333 459 599 739 1001 1175 1610 1783 2148 2479 2844 -3449"/>
    </vehicle>
    <vehicle id="132" depart="330.00" departLane="best" departPos="random" departSpeed="max">
        <route edges="-208 -192 -67 -33 -28 29 194 228 578 602"/>
    </vehicle>
    <vehicle id="133" depart="332.50" departLane="best" departPos="random" departSpeed="max">
        <route edges="-1161 -1001 -739 -599 -459 -333 -220 -192 -67 -33 -28 29 194 228 578 602"/>
    </vehicle>
    <vehicle id="134" depart="335.00" departLane="best" departPos="random" departSpeed="max">
        <route edges="-3426 -3072 3073 -2819 -2471 -2144 2140 2148 2499 2862 3312"/>
    </vehicle>
    <vehicle id="135" depart="337.50" departLane="best" departPos="random" departSpeed="max">
        <route edges="-1621 -1280 -1005 -742 740 746 1396 1649 1993"/>
    </vehicle>
    <vehicle id="136" depart="340.00" departLane="best" departPos="random" departSpeed="max">
        <route edges="2140 -1783 -1610 -1175 -1001 -739 -599 -459 -333 331 343 449 463 589 1137"/>
    </vehicle>
    <vehicle id="137" depart="342.50" departLane="best" departPos="random" departSpeed="max">
        <route edges="-3197 -2821 -2471 -2144 -1775 -1610 -1608 -1169 1175 1610"/>
    </vehicle>
    <vehicle id="138" depart="345.00" departLane="best" departPos="random" departSpeed="max">
        <route edges="-208 220 333 455 595 723 879 1143 1504 1755 2126 2363 2710 3072 -2712"/>
    </vehicle>
    <vehicle id="139" depart="347.50" departLane="best" departPos="random" departSpeed="max">
        <route edges="-2363 -2126 -1755 -1504 -1143 -879 -723 721 739 1001 1161 -1160"/>
    </vehicle>
    <vehicle id="140" depart="350.00" departLane="best" departPos="random" departSpeed="max">
        <route edges="5 17 177 228 578 608 -740 742 1011 -1611"/>
    </vehicle>
    <vehicle id="141" depart="352.50" departLane="best" departPos="random" departSpeed="max">
        <route edges="593 718 855 -720 -593 -453 -343 -218 -192 -67 -33 -28 29 204 224 572 601 742 1005 1278 -1011"/>
    </vehicle>
    <vehicle id="142" depart="355.00" departLane="best" departPos="random" departSpeed="max">
        <route edges="1280 1631 -1632 -1011 -742 -601 -572 -224 -204 -29 28 33 39 178"/>
    </vehicle>
    <vehicle id="143" depart="357.50" departLane="best" departPos="random" departSpeed="max">
        <route edges="-1137 -589 -463 -449 -343 -218 -192 -67 -33 -28 29 194 228 578 602"/>
    </vehicle>
    <vehicle id="144" depart="360.00" departLane="best" departPos="random" departSpeed="max">
        <route edges="1989 2253 -1991 -1643 -1386 -746 -608 -578 -228 -194 -29 28 33 67 192 220 333 459 599 739 1001 1175 1610 1775 2144 2471 2821 3191 3461"/>
    </vehicle>
    <vehicle id="145" depart="362.50" departLane="best" departPos="random" departSpeed="max">
        <route edges="-3448 -3177 -2139 -1773 -1150 -727 -597 -459 -333 331 343 449 463 587 -453"/>
    </vehicle>
    <vehicle id="146" depart="365.00" departLane="best" departPos="random" departSpeed="max">
        <route edges="-2017 -1133 -750 -614 -586 -228 -194 -29 28 33 67 192 220 333 459 599 739 1001 1175 1610 1775 2140 -1783"/>
    </vehicle>
    <vehicle id="147" depart="367.50" departLane="best" departPos="random" departSpeed="max">