<?xml version="1.0" encoding="UTF-8"?>

<!-- generated on 2025-08-06 11:07:59.381880 by randomTrips.py v1_24_0+0000-b72eb3fabc8
<configuration>
    <net-file value="map.net.xml"/>
    <output-trip-file value="map.trips.xml"/>
    <trip-attributes value="departLane=&quot;best&quot; departSpeed=&quot;max&quot; departPos=&quot;random&quot;"/>
    <fringe-factor value="5.0"/>
    <seed value="123"/>
    <end value="21600.0"/>
    <period value="2.0"/>
</configuration>
-->

<routes xmlns:xsi="http://www.w3.org/2001/XMLSchema-instance" xsi:noNamespaceSchemaLocation="http://sumo.dlr.de/xsd/routes_file.xsd">
    <trip id="0" depart="0.00" from="1025860967#1" to="-261420059#2" departLane="best" departSpeed="max" departPos="random"/>
    <trip id="1" depart="2.00" from="566409374#0" to="-1234351125#1" departLane="best" departSpeed="max" departPos="random"/>
    <trip id="2" depart="4.00" from="4818835#0" to="-342317279" departLane="best" departSpeed="max" departPos="random"/>
    <trip id="3" depart="6.00" from="-560562743" to="-864558904#0" departLane="best" departSpeed="max" departPos="random"/>
    <trip id="4" depart="8.00" from="261423864#1" to="-159234717#2" departLane="best" departSpeed="max" departPos="random"/>
    <trip id="5" depart="10.00" from="-461183387#0" to="149399210#1" departLane="best" departSpeed="max" departPos="random"/>
    <trip id="6" depart="12.00" from="-261423865#0" to="4211383#0" departLane="best" departSpeed="max" departPos="random"/>
    <trip id="7" depart="14.00" from="-56057361#1" to="4211384#1" departLane="best" departSpeed="max" departPos="random"/>
    <trip id="8" depart="16.00" from="-461183387#0" to="1157505356" departLane="best" departSpeed="max" departPos="random"/>
    <trip id="9" depart="18.00" from="4059036" to="160484291#2" departLane="best" departSpeed="max" departPos="random"/>
    <trip id="10" depart="20.00" from="149399206#0" to="342317279" departLane="best" departSpeed="max" departPos="random"/>
    <trip id="11" depart="22.00" from="384971140#4" to="-3527424#1" departLane="best" departSpeed="max" departPos="random"/>
    <trip id="12" depart="24.00" from="428021297#1" to="539890287" departLane="best" departSpeed="max" departPos="random"/>
    <trip id="13" depart="26.00" from="342317279" to="-3428809#5" departLane="best" departSpeed="max" departPos="random"/>
    <trip id="14" depart="28.00" from="-560562743" to="1157505351" departLane="best" departSpeed="max" departPos="random"/>
    <trip id="15" depart="30.00" from="-158008428#1" to="150078330" departLane="best" departSpeed="max" departPos="random"/>
    <trip id="16" depart="32.00" from="24581553" to="-864558904#0" departLane="best" departSpeed="max" departPos="random"/>
    <trip id="17" depart="34.00" from="261750866" to="-1082513143#0" departLane="best" departSpeed="max" departPos="random"/>
    <trip id="18" depart="36.00" from="-566409382#0" to="-384971140#3" departLane="best" departSpeed="max" departPos="random"/>
    <trip id="19" depart="38.00" from="261750867" to="-4059030#0" departLane="best" departSpeed="max" departPos="random"/>
    <trip id="20" depart="40.00" from="149399201" to="-3454180#2" departLane="best" departSpeed="max" departPos="random"/>
    <trip id="21" depart="42.00" from="-384971140#0" to="-999241257#2" departLane="best" departSpeed="max" departPos="random"/>
    <trip id="22" depart="44.00" from="-4212342" to="149399187#0" departLane="best" departSpeed="max" departPos="random"/>
    <trip id="23" depart="46.00" from="1082513143#3" to="-261423862#0" departLane="best" departSpeed="max" departPos="random"/>
    <trip id="24" depart="48.00" from="-160484291#0" to="149399187#0" departLane="best" departSpeed="max" departPos="random"/>
    <trip id="25" depart="50.00" from="-1082513142#1" to="160803841" departLane="best" departSpeed="max" departPos="random"/>
    <trip id="26" depart="52.00" from="-159234717#0" to="352645639#3" departLane="best" departSpeed="max" departPos="random"/>
    <trip id="27" depart="54.00" from="1025127003" to="999241257#3" departLane="best" departSpeed="max" departPos="random"/>
    <trip id="28" depart="56.00" from="-4059030#0" to="151549312" departLane="best" departSpeed="max" departPos="random"/>
    <trip id="29" depart="58.00" from="384971140#1" to="-864558904#0" departLane="best" departSpeed="max" departPos="random"/>
    <trip id="30" depart="60.00" from="864558904#0" to="4818835#2" departLane="best" departSpeed="max" departPos="random"/>
    <trip id="31" depart="62.00" from="1082513143#2" to="3577472#1" departLane="best" departSpeed="max" departPos="random"/>
    <trip id="32" depart="64.00" from="3454369#0" to="1082513143#0" departLane="best" departSpeed="max" departPos="random"/>
    <trip id="33" depart="66.00" from="519956418#1" to="-149399201" departLane="best" departSpeed="max" departPos="random"/>
    <trip id="34" depart="68.00" from="159908039#2" to="160803845#0" departLane="best" departSpeed="max" departPos="random"/>
    <trip id="35" depart="70.00" from="-261741010#2" to="321883383#2" departLane="best" departSpeed="max" departPos="random"/>
    <trip id="36" depart="72.00" from="566409385#0" to="4059037" departLane="best" departSpeed="max" departPos="random"/>
    <trip id="37" depart="74.00" from="-999241257#3" to="-261741010#4" departLane="best" departSpeed="max" departPos="random"/>
    <trip id="38" depart="76.00" from="86548565#0" to="160611126#1" departLane="best" departSpeed="max" departPos="random"/>
    <trip id="39" depart="78.00" from="261750867" to="4211384#1" departLane="best" departSpeed="max" departPos="random"/>
    <trip id="40" depart="80.00" from="-999241257#1" to="-149723892#1" departLane="best" departSpeed="max" departPos="random"/>
    <trip id="41" depart="82.00" from="384971139" to="98331811" departLane="best" departSpeed="max" departPos="random"/>
    <trip id="42" depart="84.00" from="3428809#6" to="-566409374#0" departLane="best" departSpeed="max" departPos="random"/>
    <trip id="43" depart="86.00" from="4211633" to="-1157505357" departLane="best" departSpeed="max" departPos="random"/>
    <trip id="44" depart="88.00" from="159908039#3" to="461183387#1" departLane="best" departSpeed="max" departPos="random"/>
    <trip id="45" depart="90.00" from="159908038" to="-261750866" departLane="best" departSpeed="max" departPos="random"/>
    <trip id="46" depart="92.00" from="159234717#0" to="171947874#1" departLane="best" departSpeed="max" departPos="random"/>
    <trip id="47" depart="94.00" from="159700888#1" to="-36894772#1" departLane="best" departSpeed="max" departPos="random"/>
    <trip id="48" depart="96.00" from="-3454180#1" to="-3577472#1" departLane="best" departSpeed="max" departPos="random"/>
    <trip id="49" depart="98.00" from="-3428809#6" to="24581553" departLane="best" departSpeed="max" departPos="random"/>
    <trip id="50" depart="100.00" from="-56057361#1" to="160803845#0" departLane="best" departSpeed="max" departPos="random"/>
    <trip id="51" depart="102.00" from="689346038" to="4212342" departLane="best" departSpeed="max" departPos="random"/>
    <trip id="52" depart="104.00" from="4059064#2" to="-428036770#0" departLane="best" departSpeed="max" departPos="random"/>
    <trip id="53" depart="106.00" from="4295990#1" to="261418601" departLane="best" departSpeed="max" departPos="random"/>
    <trip id="54" depart="108.00" from="149399206#0" to="1157505355" departLane="best" departSpeed="max" departPos="random"/>
    <trip id="55" depart="110.00" from="-261420056" to="3100654#2" departLane="best" departSpeed="max" departPos="random"/>
    <trip id="56" depart="112.00" from="566409374#0" to="4211383#0" departLane="best" departSpeed="max" departPos="random"/>
    <trip id="57" depart="114.00" from="261741010#3" to="159902718#2" departLane="best" departSpeed="max" departPos="random"/>
    <trip id="58" depart="116.00" from="3527424#2" to="-261741010#2" departLane="best" departSpeed="max" departPos="random"/>
    <trip id="59" depart="118.00" from="-1307793411#1" to="4570906#1" departLane="best" departSpeed="max" departPos="random"/>
    <trip id="60" depart="120.00" from="-708234065" to="342317279" departLane="best" departSpeed="max" departPos="random"/>
    <trip id="61" depart="122.00" from="1082513143#3" to="-E1" departLane="best" departSpeed="max" departPos="random"/>
    <trip id="62" depart="124.00" from="4059037" to="-90051672#0" departLane="best" departSpeed="max" departPos="random"/>
    <trip id="63" depart="126.00" from="384971140#4" to="422738801#3" departLane="best" departSpeed="max" departPos="random"/>
    <trip id="64" depart="128.00" from="-326502793#3" to="90051672#2" departLane="best" departSpeed="max" departPos="random"/>
    <trip id="65" depart="130.00" from="-149723892#2" to="1234351298" departLane="best" departSpeed="max" departPos="random"/>
    <trip id="66" depart="132.00" from="159234717#0" to="428021295" departLane="best" departSpeed="max" departPos="random"/>
    <trip id="67" depart="134.00" from="-321883383#2" to="181581823" departLane="best" departSpeed="max" departPos="random"/>
    <trip id="68" depart="136.00" from="428021297#0" to="-68992847#0" departLane="best" departSpeed="max" departPos="random"/>
    <trip id="69" depart="138.00" from="741042671#2" to="-1301927136#1" departLane="best" departSpeed="max" departPos="random"/>
    <trip id="70" depart="140.00" from="-999241257#3" to="-261420059#2" departLane="best" departSpeed="max" departPos="random"/>
    <trip id="71" depart="142.00" from="260924072" to="755621065" departLane="best" departSpeed="max" departPos="random"/>
    <trip id="72" depart="144.00" from="-4059037" to="149399190" departLane="best" departSpeed="max" departPos="random"/>
    <trip id="73" depart="146.00" from="230765089#1" to="-415869887" departLane="best" departSpeed="max" departPos="random"/>
    <trip id="74" depart="148.00" from="566409374#1" to="-4818835#0" departLane="best" departSpeed="max" departPos="random"/>
    <trip id="75" depart="150.00" from="863412048" to="-3527424#1" departLane="best" departSpeed="max" departPos="random"/>
    <trip id="76" depart="152.00" from="-1082513143#4" to="321883383#2" departLane="best" departSpeed="max" departPos="random"/>
    <trip id="77" depart="154.00" from="-1234351298" to="E0" departLane="best" departSpeed="max" departPos="random"/>
    <trip id="78" depart="156.00" from="-261423864#1" to="461183387#0" departLane="best" departSpeed="max" departPos="random"/>
    <trip id="79" depart="158.00" from="539890287" to="-384971139" departLane="best" departSpeed="max" departPos="random"/>
    <trip id="80" depart="160.00" from="4935749" to="150078330" departLane="best" departSpeed="max" departPos="random"/>
    <trip id="81" depart="162.00" from="566409374#0" to="4935749" departLane="best" departSpeed="max" departPos="random"/>
    <trip id="82" depart="164.00" from="4059064#0" to="-497870890" departLane="best" departSpeed="max" departPos="random"/>
    <trip id="83" depart="166.00" from="261420055#1" to="98331811" departLane="best" departSpeed="max" departPos="random"/>
    <trip id="84" depart="168.00" from="3454808#0" to="-149723892#1" departLane="best" departSpeed="max" departPos="random"/>
    <trip id="85" depart="170.00" from="1082513143#0" to="1306866780" departLane="best" departSpeed="max" departPos="random"/>
    <trip id="86" depart="172.00" from="160031108#1" to="4059030#1" departLane="best" departSpeed="max" departPos="random"/>
    <trip id="87" depart="174.00" from="689346035#2" to="428036770#2" departLane="best" departSpeed="max" departPos="random"/>
    <trip id="88" depart="176.00" from="-428036775#2" to="4570906#1" departLane="best" departSpeed="max" departPos="random"/>
    <trip id="89" depart="178.00" from="1306866780" to="-4818835#0" departLane="best" departSpeed="max" departPos="random"/>
    <trip id="90" depart="180.00" from="-160484291#2" to="149399206#0" departLane="best" departSpeed="max" departPos="random"/>
    <trip id="91" depart="182.00" from="160803841" to="-4818835#0" departLane="best" departSpeed="max" departPos="random"/>
    <trip id="92" depart="184.00" from="-3454180#0" to="689346035#1" departLane="best" departSpeed="max" departPos="random"/>
    <trip id="93" depart="186.00" from="-154343753" to="689346035#0" departLane="best" departSpeed="max" departPos="random"/>
    <trip id="94" depart="188.00" from="1025860967#0" to="4211383#0" departLane="best" departSpeed="max" departPos="random"/>
    <trip id="95" depart="190.00" from="-160611606" to="261418601" departLane="best" departSpeed="max" departPos="random"/>
    <trip id="96" depart="192.00" from="3924806" to="149399187#0" departLane="best" departSpeed="max" departPos="random"/>
    <trip id="97" depart="194.00" from="-566409382#2" to="159902718#1" departLane="best" departSpeed="max" departPos="random"/>
    <trip id="98" depart="196.00" from="566409382#0" to="-159902717" departLane="best" departSpeed="max" departPos="random"/>
    <trip id="99" depart="198.00" from="689346035#2" to="-1082513142#2" departLane="best" departSpeed="max" departPos="random"/>
    <trip id="100" depart="200.00" from="326502793#4" to="171948480" departLane="best" departSpeed="max" departPos="random"/>
    <trip id="101" depart="202.00" from="-1234351298" to="689346035#1" departLane="best" departSpeed="max" departPos="random"/>
    <trip id="102" depart="204.00" from="36966883" to="477157312#1" departLane="best" departSpeed="max" departPos="random"/>
    <trip id="103" depart="206.00" from="1157505352" to="-503190615#0" departLane="best" departSpeed="max" departPos="random"/>
    <trip id="104" depart="208.00" from="-3428809#1" to="-261423863#0" departLane="best" departSpeed="max" departPos="random"/>
    <trip id="105" depart="210.00" from="3428811" to="422738801#3" departLane="best" departSpeed="max" departPos="random"/>
    <trip id="106" depart="212.00" from="-68992847#1" to="-326502793#0" departLane="best" departSpeed="max" departPos="random"/>
    <trip id="107" depart="214.00" from="-362075987" to="-384971139" departLane="best" departSpeed="max" departPos="random"/>
    <trip id="108" depart="216.00" from="3428809#2" to="149399187#0" departLane="best" departSpeed="max" departPos="random"/>
    <trip id="109" depart="218.00" from="179310598#2" to="1157505351" departLane="best" departSpeed="max" departPos="random"/>
    <trip id="110" depart="220.00" from="-1234351298" to="-3100643" departLane="best" departSpeed="max" departPos="random"/>
    <trip id="111" depart="222.00" from="36966883" to="536435187#3" departLane="best" departSpeed="max" departPos="random"/>
    <trip id="112" depart="224.00" from="-261420056" to="150078330" departLane="best" departSpeed="max" departPos="random"/>
    <trip id="113" depart="226.00" from="4818835#3" to="179310598#0" departLane="best" departSpeed="max" departPos="random"/>
    <trip id="114" depart="228.00" from="-1082513143#3" to="160611126#3" departLane="best" departSpeed="max" departPos="random"/>
    <trip id="115" depart="230.00" from="694375402" to="-261420059#1" departLane="best" departSpeed="max" departPos="random"/>
    <trip id="116" depart="232.00" from="428036774#0" to="3924804#3" departLane="best" departSpeed="max" departPos="random"/>
    <trip id="117" depart="234.00" from="261423863#0" to="-68992847#1" departLane="best" departSpeed="max" departPos="random"/>
    <trip id="118" depart="236.00" from="863412056#0" to="-3527424#0" departLane="best" departSpeed="max" departPos="random"/>
    <trip id="119" depart="238.00" from="4818835#0" to="-1082513141" departLane="best" departSpeed="max" departPos="random"/>
    <trip id="120" depart="240.00" from="1234351298" to="668571648#2" departLane="best" departSpeed="max" departPos="random"/>
    <trip id="121" depart="242.00" from="3428809#1" to="-149723892#0" departLane="best" departSpeed="max" departPos="random"/>
    <trip id="122" depart="244.00" from="-261750863#0" to="150078330" departLane="best" departSpeed="max" departPos="random"/>
    <trip id="123" depart="246.00" from="-160484291#1" to="342317279" departLane="best" departSpeed="max" departPos="random"/>
    <trip id="124" depart="248.00" from="428021297#0" to="422738801#0" departLane="best" departSpeed="max" departPos="random"/>
    <trip id="125" depart="250.00" from="-36894772#3" to="149399187#0" departLane="best" departSpeed="max" departPos="random"/>
    <trip id="126" depart="252.00" from="-E0" to="4087296" departLane="best" departSpeed="max" departPos="random"/>
    <trip id="127" depart="254.00" from="422738802#4" to="-149723891" departLane="best" departSpeed="max" departPos="random"/>
    <trip id="128" depart="256.00" from="-428036770#1" to="-261741010#3" departLane="best" departSpeed="max" departPos="random"/>
    <trip id="129" depart="258.00" from="4211633" to="4059065#1" departLane="best" departSpeed="max" departPos="random"/>
    <trip id="130" depart="260.00" from="261564748#3" to="4059030#1" departLane="best" departSpeed="max" departPos="random"/>
    <trip id="131" depart="262.00" from="4818835#1" to="428036775#2" departLane="best" departSpeed="max" departPos="random"/>
    <trip id="132" depart="264.00" from="-4059030#0" to="1301927136#1" departLane="best" departSpeed="max" departPos="random"/>
    <trip id="133" depart="266.00" from="90051672#1" to="1082513142#0" departLane="best" departSpeed="max" departPos="random"/>
    <trip id="134" depart="268.00" from="261750866" to="428036775#2" departLane="best" departSpeed="max" departPos="random"/>
    <trip id="135" depart="270.00" from="519956415#1" to="261564748#1" departLane="best" departSpeed="max" departPos="random"/>
    <trip id="136" depart="272.00" from="-1025860967#0" to="-999241257#1" departLane="best" departSpeed="max" departPos="random"/>
    <trip id="137" depart="274.00" from="-159700888#2" to="3577472#2" departLane="best" departSpeed="max" departPos="random"/>
    <trip id="138" depart="276.00" from="261741010#4" to="149399206#1" departLane="best" departSpeed="max" departPos="random"/>
    <trip id="139" depart="278.00" from="384971139" to="-3577472#1" departLane="best" departSpeed="max" departPos="random"/>
    <trip id="140" depart="280.00" from="4059064#2" to="-4818835#1" departLane="best" departSpeed="max" departPos="random"/>
    <trip id="141" depart="282.00" from="539890287" to="999241257#2" departLane="best" departSpeed="max" departPos="random"/>
    <trip id="142" depart="284.00" from="36894772#3" to="4059030#1" departLane="best" departSpeed="max" departPos="random"/>
    <trip id="143" depart="286.00" from="566409374#0" to="3428809#1" departLane="best" departSpeed="max" departPos="random"/>
    <trip id="144" depart="288.00" from="4059065#1" to="1082513141" departLane="best" departSpeed="max" departPos="random"/>
    <trip id="145" depart="290.00" from="-160611126#3" to="E1" departLane="best" departSpeed="max" departPos="random"/>
    <trip id="146" depart="292.00" from="560562742" to="-159902717" departLane="best" departSpeed="max" departPos="random"/>
    <trip id="147" depart="294.00" from="-149723891" to="-428021295" departLane="best" departSpeed="max" departPos="random"/>
    <trip id="148" depart="296.00" from="-261420059#2" to="1234351189#0" departLane="best" departSpeed="max" departPos="random"/>
    <trip id="149" depart="298.00" from="261750866" to="160611126#2" departLane="best" departSpeed="max" departPos="random"/>
    <trip id="150" depart="300.00" from="171948480" to="-261423865#0" departLane="best" departSpeed="max" departPos="random"/>
    <trip id="151" depart="302.00" from="-503190615#2" to="4211384#1" departLane="best" departSpeed="max" departPos="random"/>
    <trip id="152" depart="304.00" from="3100654#0" to="4059030#1" departLane="best" departSpeed="max" departPos="random"/>
    <trip id="153" depart="306.00" from="342317279" to="149399190" departLane="best" departSpeed="max" departPos="random"/>
    <trip id="154" depart="308.00" from="428021296#0" to="4818835#3" departLane="best" departSpeed="max" departPos="random"/>
    <trip id="155" depart="310.00" from="-68992847#0" to="3428809#2" departLane="best" departSpeed="max" departPos="random"/>
    <trip id="156" depart="312.00" from="428021297#1" to="-261750866" departLane="best" departSpeed="max" departPos="random"/>
    <trip id="157" depart="314.00" from="566409385#0" to="4212342" departLane="best" departSpeed="max" departPos="random"/>
    <trip id="158" depart="316.00" from="-261420059#1" to="428036775#2" departLane="best" departSpeed="max" departPos="random"/>
    <trip id="159" depart="318.00" from="-321883383#2" to="-4295992#0" departLane="best" departSpeed="max" departPos="random"/>
    <trip id="160" depart="320.00" from="-321883383#2" to="4818835#2" departLane="best" departSpeed="max" departPos="random"/>
    <trip id="161" depart="322.00" from="428036773" to="-158008428#1" departLane="best" departSpeed="max" departPos="random"/>
    <trip id="162" depart="324.00" from="-1157505351" to="4211383#0" departLane="best" departSpeed="max" departPos="random"/>
    <trip id="163" depart="326.00" from="-999241257#5" to="261418596" departLane="best" departSpeed="max" departPos="random"/>
    <trip id="164" depart="328.00" from="3100654#0" to="171942531" departLane="best" departSpeed="max" departPos="random"/>
    <trip id="165" depart="330.00" from="-3428809#2" to="-566409374#1" departLane="best" departSpeed="max" departPos="random"/>
    <trip id="166" depart="332.00" from="261423864#1" to="4059065#0" departLane="best" departSpeed="max" departPos="random"/>
    <trip id="167" depart="334.00" from="-560562743" to="-1133544957" departLane="best" departSpeed="max" departPos="random"/>
    <trip id="168" depart="336.00" from="-261741010#2" to="-4818835#2" departLane="best" departSpeed="max" departPos="random"/>
    <trip id="169" depart="338.00" from="863412061" to="1307793411#0" departLane="best" departSpeed="max" departPos="random"/>
    <trip id="170" depart="340.00" from="149723896#0" to="1304155014" departLane="best" departSpeed="max" departPos="random"/>
    <trip id="171" depart="342.00" from="-3100643" to="326502793#3" departLane="best" departSpeed="max" departPos="random"/>
    <trip id="172" depart="344.00" from="162058716#1" to="503190615#0" departLane="best" departSpeed="max" departPos="random"/>
    <trip id="173" depart="346.00" from="-149723892#2" to="261420050#1" departLane="best" departSpeed="max" departPos="random"/>
    <trip id="174" depart="348.00" from="-3428809#3" to="261418596" departLane="best" departSpeed="max" departPos="random"/>
    <trip id="175" depart="350.00" from="428021296#0" to="149399187#0" departLane="best" departSpeed="max" departPos="random"/>
    <trip id="176" depart="352.00" from="741042671#2" to="4570906#1" departLane="best" departSpeed="max" departPos="random"/>
    <trip id="177" depart="354.00" from="-160484291#0" to="-1234351298" departLane="best" departSpeed="max" departPos="random"/>
    <trip id="178" depart="356.00" from="-1157505358#1" to="3428809#3" departLane="best" departSpeed="max" departPos="random"/>
    <trip id="179" depart="358.00" from="-3100654#0" to="314456049" departLane="best" departSpeed="max" departPos="random"/>
    <trip id="180" depart="360.00" from="-160611126#2" to="3577471#2" departLane="best" departSpeed="max" departPos="random"/>
    <trip id="181" depart="362.00" from="523772484" to="261741011#0" departLane="best" departSpeed="max" departPos="random"/>
    <trip id="182" depart="364.00" from="-519956418#1" to="-3527424#1" departLane="best" departSpeed="max" departPos="random"/>
    <trip id="183" depart="366.00" from="342317279" to="90051672#0" departLane="best" departSpeed="max" departPos="random"/>
    <trip id="184" depart="368.00" from="342317279" to="-261420059#0" departLane="best" departSpeed="max" departPos="random"/>
    <trip id="185" depart="370.00" from="422738801#0" to="-261750866" departLane="best" departSpeed="max" departPos="random"/>
    <trip id="186" depart="372.00" from="3527440#0" to="261420059#0" departLane="best" departSpeed="max" departPos="random"/>
    <trip id="187" depart="374.00" from="-4059030#0" to="1234351189#0" departLane="best" departSpeed="max" departPos="random"/>
    <trip id="188" depart="376.00" from="-3428809#0" to="160611126#5" departLane="best" departSpeed="max" departPos="random"/>
    <trip id="189" depart="378.00" from="3428809#1" to="171964224#1" departLane="best" departSpeed="max" departPos="random"/>
    <trip id="190" depart="380.00" from="539890287" to="261564748#2" departLane="best" departSpeed="max" departPos="random"/>
    <trip id="191" depart="382.00" from="-261741010#1" to="3924806" departLane="best" departSpeed="max" departPos="random"/>
    <trip id="192" depart="384.00" from="741042671#2" to="261564748#0" departLane="best" departSpeed="max" departPos="random"/>
    <trip id="193" depart="386.00" from="1234351189#0" to="321883383#2" departLane="best" departSpeed="max" departPos="random"/>
    <trip id="194" depart="388.00" from="261750866" to="422738802#4" departLane="best" departSpeed="max" departPos="random"/>
    <trip id="195" depart="390.00" from="149399184" to="1082513143#0" departLane="best" departSpeed="max" departPos="random"/>
    <trip id="196" depart="392.00" from="422738801#3" to="151549312" departLane="best" departSpeed="max" departPos="random"/>
    <trip id="197" depart="394.00" from="317552926" to="-4818835#1" departLane="best" departSpeed="max" departPos="random"/>
    <trip id="198" depart="396.00" from="261420059#2" to="4059065#1" departLane="best" departSpeed="max" departPos="random"/>
    <trip id="199" depart="398.00" from="-56057361#1" to="-3428809#4" departLane="best" departSpeed="max" departPos="random"/>
    <trip id="200" depart="400.00" from="149399210#1" to="1082513143#0" departLane="best" departSpeed="max" departPos="random"/>
    <trip id="201" depart="402.00" from="1082513143#3" to="-3454180#2" departLane="best" departSpeed="max" departPos="random"/>
    <trip id="202" depart="404.00" from="-160611126#5" to="321883383#2" departLane="best" departSpeed="max" departPos="random"/>
    <trip id="203" depart="406.00" from="-158008428#1" to="261418601" departLane="best" departSpeed="max" departPos="random"/>
    <trip id="204" depart="408.00" from="86548565#0" to="160031108#0" departLane="best" departSpeed="max" departPos="random"/>
    <trip id="205" depart="410.00" from="3527802#1" to="4059030#1" departLane="best" departSpeed="max" departPos="random"/>
    <trip id="206" depart="412.00" from="149399206#1" to="160611126#5" departLane="best" departSpeed="max" departPos="random"/>
    <trip id="207" depart="414.00" from="-36894772#1" to="266635496#2" departLane="best" departSpeed="max" departPos="random"/>
    <trip id="208" depart="416.00" from="160484291#0" to="-864558904#0" departLane="best" departSpeed="max" departPos="random"/>
    <trip id="209" depart="418.00" from="702188965" to="3100654#0" departLane="best" departSpeed="max" departPos="random"/>
    <trip id="210" depart="420.00" from="1082513143#0" to="519956418#1" departLane="best" departSpeed="max" departPos="random"/>
    <trip id="211" depart="422.00" from="-36894772#3" to="36966884" departLane="best" departSpeed="max" departPos="random"/>
    <trip id="212" depart="424.00" from="3527440#0" to="-3100654#1" departLane="best" departSpeed="max" departPos="random"/>
    <trip id="213" depart="426.00" from="68992847#0" to="-3100643" departLane="best" departSpeed="max" departPos="random"/>
    <trip id="214" depart="428.00" from="422738801#3" to="-3428809#3" departLane="best" departSpeed="max" departPos="random"/>
    <trip id="215" depart="430.00" from="3454369#0" to="3924804#0" departLane="best" departSpeed="max" departPos="random"/>
    <trip id="216" depart="432.00" from="-326502793#2" to="181581823" departLane="best" departSpeed="max" departPos="random"/>
    <trip id="217" depart="434.00" from="-342317279" to="999241257#1" departLane="best" departSpeed="max" departPos="random"/>
    <trip id="218" depart="436.00" from="159234717#0" to="-1082513141" departLane="best" departSpeed="max" departPos="random"/>
    <trip id="219" depart="438.00" from="-3100654#0" to="-999241257#1" departLane="best" departSpeed="max" departPos="random"/>
    <trip id="220" depart="440.00" from="-362075987" to="1307793411#0" departLane="best" departSpeed="max" departPos="random"/>
    <trip id="221" depart="442.00" from="4818815" to="151549312" departLane="best" departSpeed="max" departPos="random"/>
    <trip id="222" depart="444.00" from="-461183387#2" to="310639257#0" departLane="best" departSpeed="max" departPos="random"/>
    <trip id="223" depart="446.00" from="86548565#1" to="149399206#0" departLane="best" departSpeed="max" departPos="random"/>
    <trip id="224" depart="448.00" from="-1082513143#1" to="-1234351125#1" departLane="best" departSpeed="max" departPos="random"/>
    <trip id="225" depart="450.00" from="86548565#0" to="1082513141" departLane="best" departSpeed="max" departPos="random"/>
    <trip id="226" depart="452.00" from="160803847" to="3428809#2" departLane="best" departSpeed="max" departPos="random"/>
    <trip id="227" depart="454.00" from="3428809#4" to="-1157505360" departLane="best" departSpeed="max" departPos="random"/>
    <trip id="228" depart="456.00" from="-261420059#0" to="149399210#1" departLane="best" departSpeed="max" departPos="random"/>
    <trip id="229" depart="458.00" from="-566409382#2" to="-566409374#1" departLane="best" departSpeed="max" departPos="random"/>
    <trip id="230" depart="460.00" from="-154343753" to="-36894772#3" departLane="best" departSpeed="max" departPos="random"/>
    <trip id="231" depart="462.00" from="-1276314566" to="181581823" departLane="best" departSpeed="max" departPos="random"/>
    <trip id="232" depart="464.00" from="86548565#0" to="-1082513142#1" departLane="best" departSpeed="max" departPos="random"/>