<?xml version="1.0" encoding="UTF-8"?>

<!-- generated on 2025-08-07 20:38:00 by Eclipse SUMO duarouter Version 1.24.0
<duarouterConfiguration xmlns:xsi="http://www.w3.org/2001/XMLSchema-instance" xsi:noNamespaceSchemaLocation="http://sumo.dlr.de/xsd/duarouterConfiguration.xsd">

    <input>
        <net-file value="map.net.xml"/>
        <route-files value="map.trips.xml"/>
    </input>

    <output>
        <output-file value="map.rou.xml"/>
    </output>

</duarouterConfiguration>
-->

<routes xmlns:xsi="http://www.w3.org/2001/XMLSchema-instance" xsi:noNamespaceSchemaLocation="http://sumo.dlr.de/xsd/routes_file.xsd">
    <vehicle id="0" depart="0.00" departLane="best" departPos="random" departSpeed="max">
        <route edges="1025860967#1 171942531 519956418#1 503190615#0 503190615#1 3454368#1 123095957 261420054#0 90171086 1135899069 -708234065 -159902717 -1025127002 1025127003 159902718#1 159902718#2 159902718#3 4059036 49931898#0 49931898#1 261421751 -261420059#2"/>
    </vehicle>
    <vehicle id="1" depart="2.00" departLane="best" departPos="random" departSpeed="max">
        <route edges="566409374#0 566409374#1 566409377#0 566409377#1 -566409382#2 -566409382#1 -566409382#0 -4059037 708234064 159902717 708234065 1304155014 179609886#0 179609886#1 261420055#1 261420050#1 1135899061 -3454368#2 -503190615#2 -503190615#0 -519956418#1 -519956418#0 -1025860967#1 -1025860967#0 -519956415#1 -422738800#1 -422738800#0 422738801#0 422738801#1 422738801#2 422738801#3 -261423862#2 -3100654#2 -3100654#1 -3100654#0 -68992847#1 -68992847#0 -1234351125#1"/>
    </vehicle>
    <vehicle id="2" depart="4.00" departLane="best" departPos="random" departSpeed="max">
        <route edges="4818835#0 4818835#1 4818835#2 4818835#3 -1082513143#4 -1082513143#3 -1082513143#2 -1082513143#1 1234351298 3100654#0 3100654#1 3100654#2 -261423862#0 -261423864#1 -261423864#0 -342317279"/>
    </vehicle>
    <vehicle id="3" depart="6.00" departLane="best" departPos="random" departSpeed="max">
        <route edges="-560562743 -1248871134 -1248871137 -310639256 -534092873 -261741010#6 -261741010#4 171964224#0 171964224#1 36966883 36966884 162058716#1 689346034 689346040 689346038 741042671#1 741042671#2 689346035#0 689346035#1 689346035#2 310639256 1248871137 181581823 560562743 560562742 4059055#0 -310639257#1 -310639257#0 -863412061 E0 -E1 -497870890 160484291#0 160484291#1 160484291#2 160484291#3 160484291#4 -864558904#1 -864558904#0"/>
    </vehicle>
    <vehicle id="4" depart="8.00" departLane="best" departPos="random" departSpeed="max">
        <route edges="261423864#1 261423862#0 -3100654#2 -3100654#1 -3100654#0 -1234351298 1082513143#1 1082513143#2 1082513143#3 1082513143#4 -1157505358#1 -1157505358#0 -149723892#2 -149723892#1 -149723892#0 160803840 1157505353 160803847 160803845#0 3527802#1 261741011#0 261741011#1 24581553 171948480 317552926 -36894772#3 -36894772#2 -36894772#1 -159234717#2"/>
    </vehicle>
    <vehicle id="5" depart="10.00" departLane="best" departPos="random" departSpeed="max">
        <route edges="-461183387#0 -160484291#4 -160484291#3 -160484291#2 -160484291#1 -160484291#0 497870890 E1 -E0 863412061 310639257#0 310639257#1 -4059055#2 -181581824#1 -560562743 -1248871134 -1248871137 -310639256 -534092873 -261741010#6 -261741010#4 -261741010#3 -261741010#2 -261741010#1 -98331811 4059065#0 4059065#1 171948480 536435187#3 4818815 755621065 149399210#1"/>
    </vehicle>
    <vehicle id="6" depart="12.00" departLane="best" departPos="random" departSpeed="max">
        <route edges="-261423865#0 -149723891 -1157505362 -1157505367 -1157505360 -1157505357 -184170266#0 -1157505358#1 -1157505358#0 -149723892#2 -149723892#1 -149723892#0 160803840 1157505353 160803847 160803845#0 3527802#1 261741011#0 261741011#1 24581553 171948480 317552926 -36894772#3 -36894772#2 -36894772#1 702188965 4211383#0"/>
    </vehicle>
    <vehicle id="7" depart="14.00" departLane="best" departPos="random" departSpeed="max">
        <route edges="-56057361#1 261423863#0 261423863#1 1133544957 1133544956 -261423865#0 -149723891 -1157505362 -1157505367 -1157505360 -1157505357 -184170266#0 -1157505358#1 -1157505358#0 -149723892#2 -149723892#1 -149723892#0 160803840 1157505353 160803847 160803845#0 3527802#1 261741011#0 261741011#1 4059064#0 4059064#1 4059064#2 98331811 261741010#0 261741010#2 261741010#3 4211384#0 4211384#1"/>
    </vehicle>
    <vehicle id="8" depart="16.00" departLane="best" departPos="random" departSpeed="max">
        <route edges="-461183387#0 -160484291#4 -160484291#3 -160484291#2 -160484291#1 -160484291#0 497870890 E1 -E0 863412061 310639257#0 310639257#1 -4059055#2 -181581824#1 -560562743 -1248871134 -1248871137 -310639256 -534092873 -261741010#6 -261741010#4 -261741010#3 -261741010#2 -261741010#1 -98331811 4059065#0 4059065#1 171948480 536435187#3 4818815 755621065 149399210#1 149399209#0 523772484 261743231 1157505355 149723892#1 149723892#2 1157505356"/>
    </vehicle>
    <vehicle id="9" depart="18.00" departLane="best" departPos="random" departSpeed="max">
        <route edges="4059036 1119459060#0 1119459060#1 -4059030#1 -4059030#0 49931897 159234717#0 159234717#1 159234717#2 702188965 4211383#0 4211383#1 36966883 36966884 162058716#1 689346034 689346040 689346038 741042671#1 741042671#2 689346035#0 689346035#1 689346035#2 310639256 1248871137 181581823 560562743 560562742 4059055#0 -310639257#1 -310639257#0 -863412061 E0 -E1 -497870890 160484291#0 160484291#1 160484291#2"/>
    </vehicle>
    <vehicle id="10" depart="20.00" departLane="best" departPos="random" departSpeed="max">
        <route edges="149399206#0 149399206#1 -98331811 4059065#0 4059065#1 171948480 536435187#3 4818815 755621065 149399210#1 149399209#0 523772484 261743231 1157505355 149723892#1 149723892#2 1157505356 1157505358#1 184170266#0 184170266#1 1157505360 1157505367 1157505362 149723891 1157505365 158008428#1 342317279"/>
    </vehicle>
    <vehicle id="11" depart="22.00" departLane="best" departPos="random" departSpeed="max">
        <route edges="384971140#4 428036774#0 428036770#0 428036770#1 428036770#2 1157505351 1157505352 261750863#0 160803841 149723896#0 523772484 261743231 1157505355 149723892#1 149723892#2 1157505356 1157505358#1 -4818835#3 -4818835#2 -3527424#6 -3527424#5 -3527424#4 -3527424#3 -3527424#2 -3527424#1"/>
    </vehicle>
    <vehicle id="12" depart="24.00" departLane="best" departPos="random" departSpeed="max">
        <route edges="428021297#1 1306866780 428021296#0 -98331811 4059065#0 4059065#1 171948480 536435187#3 4818815 755621065 149399210#1 149399209#0 523772484 261743231 1157505355 149723892#1 149723892#2 1157505356 1157505358#1 184170266#0 184170266#1 1157505360 1157505367 1157505362 149723891 1157505365 158008428#1 342317279 261423864#0 261423864#1 261423862#0 261423862#2 422738802#0 422738802#1 422738802#2 422738802#4 539890287"/>
    </vehicle>
    <vehicle id="13" depart="26.00" departLane="best" departPos="random" departSpeed="max">
        <route edges="342317279 261423864#0 261423864#1 261423862#0 261423862#2 -1301927136#1 -1301927136#0 -4295992#2 -4295992#0 -1082513142#2 -1082513142#1 -1082513142#0 -1082513141 -3428809#6 -3428809#5"/>
    </vehicle>
    <vehicle id="14" depart="28.00" departLane="best" departPos="random" departSpeed="max">
        <route edges="-560562743 -1248871134 -1248871137 -310639256 -534092873 -261741010#6 -261741010#4 -261741010#3 -261741010#2 -261741010#1 -98331811 4059065#0 4059065#1 171948480 536435187#3 4818815 755621065 149399210#1 149399209#0 523772481 261750867 -261750863#0 -1157505352 -1157505351 -428036770#2 -428036770#1 -428036770#0 -428036774#1 -384971140#4 -384971140#3 -384971140#1 -384971140#0 86548565#1 1335949463 428021297#0 428021297#1 -428021295 -3577472#2 -3577472#1 428036770#2 1157505351"/>
    </vehicle>
    <vehicle id="15" depart="30.00" departLane="best" departPos="random" departSpeed="max">
        <route edges="-158008428#1 150078330"/>
    </vehicle>
    <vehicle id="16" depart="32.00" departLane="best" departPos="random" departSpeed="max">
        <route edges="24581553 171948480 149399206#0 149399206#1 261741010#0 261741010#2 261741010#3 261741010#4 261741010#5 534092873 310639256 1248871137 181581823 560562743 560562742 4059055#0 -310639257#1 -310639257#0 -863412061 E0 -E1 -497870890 160484291#0 160484291#1 160484291#2 160484291#3 160484291#4 -864558904#1 -864558904#0"/>
    </vehicle>
    <vehicle id="17" depart="34.00" departLane="best" departPos="random" departSpeed="max">
        <route edges="261750866 428036770#0 428036770#1 428036770#2 1157505351 1157505352 261750863#0 160803841 149723896#0 523772484 261743231 1157505355 149723892#1 149723892#2 1157505356 1157505358#1 -1082513143#4 -1082513143#3 -1082513143#2 -1082513143#1 -1082513143#0"/>
    </vehicle>
    <vehicle id="18" depart="36.00" departLane="best" departPos="random" departSpeed="max">
        <route edges="-566409382#0 -4059037 1025127003 159902718#1 159902718#2 159902718#3 4059036 1119459060#0 1119459060#1 -4059030#1 -4059030#0 49931897 159234717#0 159234717#1 159234717#2 36894772#0 36894772#2 36894772#3 230765089#1 755621065 149399210#1 149399209#0 523772481 261750867 -261750863#0 -1157505352 -1157505351 -428036770#2 -428036770#1 -428036770#0 -428036774#1 -384971140#4 -384971140#3"/>
    </vehicle>
    <vehicle id="19" depart="38.00" departLane="best" departPos="random" departSpeed="max">
        <route edges="261750867 160803841 149723896#0 3527802#1 261741011#0 261741011#1 4059064#0 4059064#1 4059064#2 98331811 261741010#0 261741010#2 261741010#3 261741010#4 261741010#5 534092873 310639256 1248871137 181581823 560562743 560562742 3454808#0 3454808#1 261564748#0 261564748#1 261564748#2 261564748#3 260924072 179310598#0 179310598#2 352645639#3 477157312#0 477157312#1 477157310 1119459060#0 1119459060#1 -4059030#1 -4059030#0"/>
    </vehicle>
    <vehicle id="20" depart="40.00" departLane="best" departPos="random" departSpeed="max">
        <route edges="149399201 36966883 36966884 4059033#2 4059033#3 601799190#1 49931897 -3454180#2"/>
    </vehicle>
    <vehicle id="21" depart="42.00" departLane="best" departPos="random" departSpeed="max">
        <route edges="-384971140#0 86548565#1 1335949463 428021297#0 428021297#1 1306866780 428021296#0 -98331811 4059065#0 4059065#1 171948480 536435187#3 4818815 755621065 149399210#1 149399209#0 523772484 261743231 1157505355 149723892#1 149723892#2 1157505356 1157505358#1 184170266#0 184170266#1 1157505360 4295990#1 694375402 -999241257#3 -999241257#2"/>
    </vehicle>
    <vehicle id="22" depart="44.00" departLane="best" departPos="random" departSpeed="max">
        <route edges="-4212342 -1248871134 -1248871137 -310639256 -534092873 -261741010#6 -261741010#4 -261741010#3 -261741010#2 -261741010#1 -98331811 4059065#0 4059065#1 171948480 536435187#3 4818815 755621065 149399210#1 149399209#0 171947874#1 266635494 149399190 149399187#0"/>
    </vehicle>
    <vehicle id="23" depart="46.00" departLane="best" departPos="random" departSpeed="max">
        <route edges="1082513143#3 1082513143#4 184170266#0 184170266#1 1157505360 1234351125#1 68992847#0 68992847#1 3100654#0 3100654#1 3100654#2 -261423862#0"/>
    </vehicle>
    <vehicle id="24" depart="48.00" departLane="best" departPos="random" departSpeed="max">
        <route edges="-160484291#0 497870890 E1 -E0 863412061 310639257#0 310639257#1 -4059055#2 -181581824#1 -560562743 -1248871134 -1248871137 -310639256 -534092873 -261741010#6 -261741010#4 -261741010#3 -261741010#2 -261741010#1 -98331811 4059065#0 4059065#1 171948480 536435187#3 4818815 755621065 149399210#1 149399209#0 171947874#1 266635494 149399190 149399187#0"/>
    </vehicle>
    <vehicle id="25" depart="50.00" departLane="best" departPos="random" departSpeed="max">
        <route edges="-1082513142#1 -1082513142#0 -1082513141 -3428809#6 -3428809#5 -3428809#4 -3428809#3 -3428809#2 -4087296 261420059#1 261420059#2 1307793411#0 3454180#0 3454180#1 3454180#2 159234717#0 159234717#1 159234717#2 36894772#0 36894772#2 36894772#3 230765089#1 755621065 149399210#1 149399209#0 523772481 261750867 160803841"/>
    </vehicle>
    <vehicle id="26" depart="52.00" departLane="best" departPos="random" departSpeed="max">
        <route edges="-159234717#0 -3454180#2 -3454180#1 -3454180#0 3428811 415869887 -3428809#3 -3428809#2 -4087296 261420059#1 261420059#2 1307793411#0 3454180#0 3454180#1 3454180#2 159234717#0 159234717#1 159234717#2 702188965 4211383#0 4211383#1 36966883 36966884 162058716#1 689346034 689346040 689346038 741042671#1 741042671#2 689346035#0 689346035#1 689346035#2 310639256 1248871137 181581823 560562743 560562742 3454808#0 3454808#1 261564748#0 261564748#1 261564748#2 261564748#3 260924072 179310598#0 179310598#2 352645639#3"/>
    </vehicle>
    <vehicle id="27" depart="54.00" departLane="best" departPos="random" departSpeed="max">
        <route edges="1025127003 159902718#1 159902718#2 159902718#3 4059036 49931898#0 49931898#1 261421751 1307793411#0 3428811 415869887 3428809#4 3428809#5 3428809#6 1082513141 1082513142#0 1082513142#1 1082513142#2 1082513143#0 1082513143#1 1082513143#2 1082513143#3 1082513143#4 -4818835#3 -4818835#2 999241257#1 999241257#2 999241257#3"/>
    </vehicle>
    <vehicle id="28" depart="56.00" departLane="best" departPos="random" departSpeed="max">
        <route edges="-4059030#0 49931897 -3454180#2 -3454180#1 -3454180#0 -1307793411#1 -261420059#2 -261420059#1 -261420059#0 -137962150#2 90171086 1135899069 450125391 151549312"/>
    </vehicle>
    <vehicle id="29" depart="58.00" departLane="best" departPos="random" departSpeed="max">
        <route edges="384971140#1 384971140#3 384971140#4 428036774#0 428036770#0 428036770#1 428036770#2 1157505351 1157505352 261750863#0 160803841 149723896#0 3527802#1 261741011#0 261741011#1 4059064#0 4059064#1 4059064#2 98331811 261741010#0 261741010#2 261741010#3 261741010#4 261741010#5 534092873 310639256 1248871137 181581823 560562743 560562742 4059055#0 -310639257#1 -310639257#0 -863412061 E0 -E1 -497870890 160484291#0 160484291#1 160484291#2 160484291#3 160484291#4 -864558904#1 -864558904#0"/>
    </vehicle>
    <vehicle id="30" depart="60.00" departLane="best" departPos="random" departSpeed="max">
        <route edges="864558904#0 864558904#1 -160484291#4 -160484291#3 -160484291#2 -160484291#1 -160484291#0 497870890 E1 -E0 863412061 310639257#0 310639257#1 -4059055#2 -181581824#1 -560562743 -1248871134 -1248871137 -310639256 -534092873 -261741010#6 -261741010#4 -261741010#3 -261741010#2 -261741010#1 -98331811 4059065#0 4059065#1 171948480 536435187#3 4818815 755621065 149399210#1 149399209#0 523772484 261743231 1157505355 149723892#1 149723892#2 1157505356 1157505358#1 184170266#0 184170266#1 1157505360 4295990#1 694375402 -999241257#3 -999241257#2 -999241257#1 4818835#2"/>
    </vehicle>
    <vehicle id="31" depart="62.00" departLane="best" departPos="random" departSpeed="max">
        <route edges="1082513143#2 1082513143#3 1082513143#4 -1157505358#1 -1157505358#0 -149723892#2 -149723892#1 -149723892#0 160803840 1157505353 160803847 160803845#0 523772481 261750867 -261750863#0 -1157505352 -1157505351 -428036770#2 3577472#1"/>
    </vehicle>
    <vehicle id="32" depart="64.00" departLane="best" departPos="random" departSpeed="max">
        <route edges="3454369#0 -261420056 1304155014 179609886#0 179609886#1 261420055#1 261420050#1 1135899061 -3454368#2 -503190615#2 -503190615#0 -519956418#1 -519956418#0 -1025860967#1 -1025860967#0 -519956415#1 -422738800#1 -422738800#0 422738801#0 422738801#1 422738801#2 422738801#3 -1301927136#1 -1301927136#0 -4295992#2 -4295992#0 1082513143#0"/>
    </vehicle>
    <vehicle id="33" depart="66.00" departLane="best" departPos="random" departSpeed="max">
        <route edges="519956418#1 503190615#0 503190615#1 3454368#1 123095957 261420054#0 137962150#0 261420059#0 261420059#1 261420059#2 1307793411#0 3454180#0 3454180#1 3454180#2 159234717#0 159234717#1 159234717#2 702188965 4211383#0 4211383#1 -149399201"/>
    </vehicle>
    <vehicle id="34" depart="68.00" departLane="best" departPos="random" departSpeed="max">
        <route edges="159908039#2 159908039#3 376239875 3533995 160031108#0 160031108#1 753584090 566409385#0 -261420056 1304155014 179609886#0 179609886#1 261420055#1 261420050#1 1135899061 -3454368#2 -503190615#2 -503190615#0 -519956418#1 -519956418#0 -1025860967#1 -1025860967#0 -519956415#1 -422738800#1 -422738800#0 422738801#0 422738801#1 422738801#2 422738801#3 -261423862#2 -261423862#0 -261423864#1 -261423864#0 -342317279 -158008428#1 -261423865#0 -149723891 -1157505362 -1157505367 -1157505360 -1157505357 -184170266#0 -1157505358#1 -1157505358#0 -149723892#2 -149723892#1 -149723892#0 160803840 1157505353 160803847 160803845#0"/>
    </vehicle>
    <vehicle id="35" depart="70.00" departLane="best" departPos="random" departSpeed="max">
        <route edges="-261741010#2 -261741010#1 -98331811 4059065#0 4059065#1 171948480 149399206#0 149399206#1 261741010#0 261741010#2 261741010#3 261741010#4 261741010#5 534092873 310639256 1248871137 181581823 560562743 560562742 4059055#0 -310639257#1 -310639257#0 -863412061 E0 -E1 -497870890 160484291#0 160484291#1 160484291#2 160484291#3 160484291#4 461183387#0 461183387#1 461183387#2 321883383#1 321883383#2"/>
    </vehicle>
    <vehicle id="36" depart="72.00" departLane="best" departPos="random" departSpeed="max">
        <route edges="566409385#0 -261420056 1304155014 179609886#0 179609886#1 261420055#1 137962150#0 261420059#0 4087296 -3428809#1 -3428809#0 123095957 261420054#0 90171086 1135899069 -708234065 -159902717 -1025127002 4059037"/>
    </vehicle>
    <vehicle id="37" depart="74.00" departLane="best" departPos="random" departSpeed="max">
        <route edges="-999241257#3 -999241257#2 -999241257#1 4818835#2 4818835#3 -1157505358#1 -1157505358#0 -149723892#2 -149723892#1 -149723892#0 160803840 1157505353 160803847 160803845#0 3527802#1 261741011#0 261741011#1 24581553 171948480 668571648#1 668571648#2 149399201 36966883 36966884 162058716#1 689346034 689346040 689346038 741042671#1 741042671#2 689346035#0 689346035#1 689346035#2 -534092873 -261741010#6 -261741010#4"/>
    </vehicle>
    <vehicle id="38" depart="76.00" departLane="best" departPos="random" departSpeed="max">
        <route edges="86548565#0 86548565#1 1335949463 428021297#0 428021297#1 1306866780 428021296#0 261741010#0 261741010#2 261741010#3 261741010#4 261741010#5 534092873 310639256 1248871137 181581823 560562743 560562742 4059055#0 -310639257#1 -310639257#0 -863412061 E0 -E1 -497870890 160484291#0 160484291#1 160484291#2 160484291#3 160484291#4 160611126#1"/>
    </vehicle>
    <vehicle id="39" depart="78.00" departLane="best" departPos="random" departSpeed="max">
        <route edges="261750867 160803841 149723896#0 3527802#1 261741011#0 261741011#1 4059064#0 4059064#1 4059064#2 98331811 261741010#0 261741010#2 261741010#3 4211384#0 4211384#1"/>
    </vehicle>
    <vehicle id="40" depart="80.00" departLane="best" departPos="random" departSpeed="max">
        <route edges="-999241257#1 4818835#2 4818835#3 -1157505358#1 -1157505358#0 -149723892#2 -149723892#1"/>
    </vehicle>
    <vehicle id="41" depart="82.00" departLane="best" departPos="random" departSpeed="max">
        <route edges="384971139 384971140#0 384971140#1 384971140#3 384971140#4 428036774#0 428036770#0 428036770#1 428036770#2 1157505351 1157505352 261750863#0 160803841 149723896#0 3527802#1 261741011#0 261741011#1 4059064#0 4059064#1 4059064#2 98331811"/>
    </vehicle>
    <vehicle id="42" depart="84.00" departLane="best" departPos="random" departSpeed="max">
        <route edges="3428809#6 1082513141 1082513142#0 1082513142#1 1082513142#2 4295992#0 4295992#2 1301927136#0 1301927136#1 422738802#0 422738802#1 422738802#2 422738802#4 539890287 422738800#1 519956415#1 1025860967#0 1025860967#1 171942531 519956418#1 503190615#0 503190615#1 3454368#1 123095957 261420054#0 90171086 1135899069 -708234065 -159902717 -1025127002 4059037 566409382#0 566409382#1 566409382#2 -566409377#1 -566409377#0 -566409374#1 -566409374#0"/>
    </vehicle>
    <vehicle id="43" depart="86.00" departLane="best" departPos="random" departSpeed="max">
        <route edges="4211633 -261423865#0 -149723891 -1157505362 -1157505367 -1157505360 -1157505357"/>
    </vehicle>
    <vehicle id="44" depart="88.00" departLane="best" departPos="random" departSpeed="max">
        <route edges="159908039#3 376239875 3533995 160031108#0 160031108#1 753584090 566409385#0 -261420056 1304155014 179609886#0 179609886#1 261420055#1 137962150#0 261420059#0 261420059#1 261420059#2 1307793411#0 3454180#0 3454180#1 3454180#2 159234717#0 159234717#1 159234717#2 702188965 4211383#0 4211383#1 36966883 36966884 162058716#1 689346034 689346040 689346038 741042671#1 741042671#2 689346035#0 689346035#1 689346035#2 310639256 1248871137 181581823 560562743 560562742 4059055#0 -310639257#1 -310639257#0 -863412061 E0 -E1 -497870890 160484291#0 160484291#1 160484291#2 160484291#3 160484291#4 461183387#0 461183387#1"/>
    </vehicle>
    <vehicle id="45" depart="90.00" departLane="best" departPos="random" departSpeed="max">
        <route edges="159908038 376239877#0 376239877#1 376239874 159908039#0 159908039#1 159908039#2 159908039#3 376239875 3533995 160031108#0 160031108#1 753584090 566409385#0 -261420056 1304155014 179609886#0 179609886#1 261420055#1 137962150#0 261420059#0 261420059#1 261420059#2 1307793411#0 3454180#0 3454180#1 3454180#2 159234717#0 159234717#1 159234717#2 36894772#0 36894772#2 36894772#3 230765089#1 755621065 149399210#1 149399209#0 523772481 261750867 -261750863#0 -1157505352 -1157505351 -428036770#2 -428036770#1 -428036770#0 -261750866"/>
    </vehicle>
    <vehicle id="46" depart="92.00" departLane="best" departPos="random" departSpeed="max">
        <route edges="159234717#0 159234717#1 159234717#2 36894772#0 36894772#2 36894772#3 230765089#1 755621065 149399210#1 149399209#0 171947874#1"/>
    </vehicle>
    <vehicle id="47" depart="94.00" departLane="best" departPos="random" departSpeed="max">
        <route edges="159700888#1 428036773 428036775#0 3577471#0 3577471#1 3577471#2 3577471#3 160803838#0 3527802#1 261741011#0 261741011#1 24581553 171948480 317552926 -36894772#3 -36894772#2 -36894772#1"/>
    </vehicle>
    <vehicle id="48" depart="96.00" departLane="best" departPos="random" departSpeed="max">
        <route edges="-3454180#1 -3454180#0 3428811 415869887 3428809#4 3428809#5 3428809#6 1082513141 1082513142#0 1082513142#1 1082513142#2 1082513143#0 1082513143#1 1082513143#2 1082513143#3 1082513143#4 -1157505358#1 -1157505358#0 -149723892#2 -149723892#1 -149723892#0 160803840 1157505353 160803847 160803845#0 523772481 261750867 -261750863#0 -1157505352 -1157505351 -428036770#2 -428036770#1 -428036770#0 -428036774#1 -384971140#4 -384971140#3 -384971140#1 -384971140#0 86548565#1 1335949463 428021297#0 428021297#1 -428021295 -3577472#2 -3577472#1"/>
    </vehicle>
    <vehicle id="49" depart="98.00" departLane="best" departPos="random" departSpeed="max">
        <route edges="-3428809#6 -3428809#5 -3428809#4 -3428809#3 -3428809#2 -4087296 261420059#1 261420059#2 1307793411#0 3454180#0 3454180#1 3454180#2 159234717#0 159234717#1 159234717#2 36894772#0 36894772#2 36894772#3 230765089#1 755621065 149399210#1 149399209#0 3527802#1 261741011#0 261741011#1 24581553"/>
    </vehicle>
    <vehicle id="50" depart="100.00" departLane="best" departPos="random" departSpeed="max">
        <route edges="-56057361#1 261423863#0 261423863#1 1133544957 1133544956 -261423865#0 -149723891 -1157505362 -1157505367 -1157505360 -1157505357 -184170266#0 -1157505358#1 -1157505358#0 -149723892#2 -149723892#1 -149723892#0 160803840 1157505353 160803847 160803845#0"/>
    </vehicle>
    <vehicle id="51" depart="102.00" departLane="best" departPos="random" departSpeed="max">
        <route edges="689346038 741042671#1 741042671#2 689346035#0 689346035#1 689346035#2 310639256 1248871137 181581823 4212342"/>
    </vehicle>
    <vehicle id="52" depart="104.00" departLane="best" departPos="random" departSpeed="max">
        <route edges="4059064#2 98331811 261741010#0 261741010#2 261741010#3 171964224#0 171964224#1 -149399201 536435187#0 536435187#1 536435187#3 4818815 755621065 149399210#1 149399209#0 523772481 261750867 -261750863#0 -1157505352 -1157505351 -428036770#2 -428036770#1 -428036770#0"/>
    </vehicle>
    <vehicle id="53" depart="106.00" departLane="best" departPos="random" departSpeed="max">
        <route edges="4295990#1 694375402 -999241257#3 -999241257#2 -999241257#1 4818835#2 4818835#3 184170266#0 184170266#1 1157505360 1157505367 1157505362 149723891 1157505365 158008428#1 342317279 261423864#0 261423864#1 261423862#0 261423862#2 422738802#0 422738802#1 422738802#2 422738802#4 539890287 422738800#1 519956415#1 1025860967#0 1025860967#1 171942531 519956418#1 503190615#0 503190615#1 4211635#0 261418596 261418601"/>
    </vehicle>
    <vehicle id="54" depart="108.00" departLane="best" departPos="random" departSpeed="max">
        <route edges="149399206#0 149399206#1 -98331811 4059065#0 4059065#1 171948480 536435187#3 4818815 755621065 149399210#1 149399209#0 523772484 261743231 1157505355"/>
    </vehicle>
    <vehicle id="55" depart="110.00" departLane="best" departPos="random" departSpeed="max">
        <route edges="-261420056 1304155014 179609886#0 179609886#1 261420055#1 261420050#1 1135899061 -3454368#2 -503190615#2 -503190615#0 -519956418#1 -519956418#0 -1025860967#1 -1025860967#0 -519956415#1 -422738800#1 -422738800#0 422738801#0 422738801#1 422738801#2 422738801#3 -1301927136#1 -1301927136#0 -4295992#2 -1234351189#1 -1234351189#0 3100654#0 3100654#1 3100654#2"/>
    </vehicle>
    <vehicle id="56" depart="112.00" departLane="best" departPos="random" departSpeed="max">
        <route edges="566409374#0 566409374#1 566409377#0 566409377#1 -566409382#2 -566409382#1 -566409382#0 -4059037 1025127003 159902718#1 159902718#2 159902718#3 4059036 1119459060#0 1119459060#1 -4059030#1 -4059030#0 49931897 159234717#0 159234717#1 159234717#2 702188965 4211383#0"/>
    </vehicle>
    <vehicle id="57" depart="114.00" departLane="best" departPos="random" departSpeed="max">
        <route edges="261741010#3 171964224#0 171964224#1 36966883 36966884 4059033#2 4059033#3 601799190#1 49931897 -3454180#2 -3454180#1 -3454180#0 -1307793411#1 -261420059#2 -261420059#1 -261420059#0 -137962150#2 90171086 1135899069 -708234065 -159902717 -1025127002 1025127003 159902718#1 159902718#2"/>
    </vehicle>
    <vehicle id="58" depart="116.00" departLane="best" departPos="random" departSpeed="max">
        <route edges="3527424#2 3527424#3 3527424#4 3527424#5 3527424#6 4818835#2 4818835#3 -1157505358#1 -1157505358#0 -149723892#2 -149723892#1 -149723892#0 160803840 1157505353 160803847 160803845#0 3527802#1 261741011#0 261741011#1 24581553 171948480 668571648#1 668571648#2 149399201 36966883 36966884 162058716#1 689346034 689346040 689346038 741042671#1 741042671#2 689346035#0 689346035#1 689346035#2 -534092873 -261741010#6 -261741010#4 -261741010#3 -261741010#2"/>
    </vehicle>
    <vehicle id="59" depart="118.00" departLane="best" departPos="random" departSpeed="max">
        <route edges="-1307793411#1 -261420059#2 -261420059#1 4087296 -3428809#1 -3428809#0 123095957 261420054#0 137962150#0 261420059#0 261420059#1 261420059#2 1307793411#0 3454180#0 3454180#1 3454180#2 159234717#0 159234717#1 159234717#2 36894772#0 36894772#2 36894772#3 230765089#1 4570906#1"/>
    </vehicle>
    <vehicle id="60" depart="120.00" departLane="best" departPos="random" departSpeed="max">
        <route edges="-708234065 -159902717 -1025127002 1025127003 159902718#1 159902718#2 159902718#3 4059036 49931898#0 49931898#1 261421751 1307793411#0 3428811 415869887 3428809#4 3428809#5 3428809#6 1082513141 1082513142#0 1082513142#1 1082513142#2 4295992#0 -1234351189#1 -1234351189#0 -68992847#1 -68992847#0 -1234351125#1 1157505367 1157505362 149723891 1157505365 158008428#1 342317279"/>
    </vehicle>
    <vehicle id="61" depart="122.00" departLane="best" departPos="random" departSpeed="max">
        <route edges="1082513143#3 1082513143#4 -1157505358#1 -1157505358#0 -149723892#2 -149723892#1 -149723892#0 160803840 1157505353 160803847 160803845#0 3527802#1 261741011#0 261741011#1 4059064#0 4059064#1 4059064#2 98331811 261741010#0 261741010#2 261741010#3 261741010#4 261741010#5 534092873 310639256 1248871137 181581823 560562743 560562742 4059055#0 -310639257#1 -310639257#0 -863412061 E0 -E1"/>
    </vehicle>
    <vehicle id="62" depart="124.00" departLane="best" departPos="random" departSpeed="max">
        <route edges="4059037 566409382#0 566409382#1 566409382#2 3924806 160031108#0 160031108#1 753584090 566409385#0 -261420056 1304155014 179609886#0 179609886#1 261420055#1 261420050#1 1135899061 -3454368#2 -503190615#2 -503190615#0 -519956418#1 -519956418#0 -90051672#2 -90051672#1 -90051672#0"/>
    </vehicle>
    <vehicle id="63" depart="126.00" departLane="best" departPos="random" departSpeed="max">
        <route edges="384971140#4 428036774#0 428036770#0 428036770#1 428036770#2 1157505351 1157505352 261750863#0 160803841 149723896#0 523772484 261743231 1157505355 149723892#1 149723892#2 1157505356 1157505358#1 -1082513143#4 -1082513143#3 -1082513143#2 -1082513143#1 -1082513143#0 -1082513142#2 -1082513142#1 -1082513142#0 -1082513141 -3428809#6 -3428809#5 -3428809#4 1276314567 326502793#1 326502793#2 326502793#3 326502793#4 -422738800#1 -422738800#0 422738801#0 422738801#1 422738801#2 422738801#3"/>
    </vehicle>
    <vehicle id="64" depart="128.00" departLane="best" departPos="random" departSpeed="max">
        <route edges="-326502793#3 -326502793#2 -326502793#1 -326502793#0 -3428809#3 -3428809#2 90051672#0 90051672#1 90051672#2"/>
    </vehicle>
    <vehicle id="65" depart="130.00" departLane="best" departPos="random" departSpeed="max">