<?xml version="1.0" encoding="UTF-8"?>

<!-- generated on 2025-08-09 18:19:57.940976 by randomTrips.py v1_24_0+0000-b72eb3fabc8
<configuration>
    <net-file value="map.net.xml"/>
    <output-trip-file value="map.trips.xml"/>
    <trip-attributes value="departLane=&quot;best&quot; departSpeed=&quot;max&quot; departPos=&quot;random&quot;"/>
    <fringe-factor value="2.0"/>
    <seed value="456"/>
    <end value="5000.0"/>
    <period value="2.5"/>
</configuration>
-->

<routes xmlns:xsi="http://www.w3.org/2001/XMLSchema-instance" xsi:noNamespaceSchemaLocation="http://sumo.dlr.de/xsd/routes_file.xsd">
    <trip id="0" depart="0.00" from="1157505362" to="4211383#0" departLane="best" departSpeed="max" departPos="random"/>
    <trip id="1" depart="2.50" from="310639257#0" to="261741010#4" departLane="best" departSpeed="max" departPos="random"/>
    <trip id="2" depart="5.00" from="428021296#0" to="4087296" departLane="best" departSpeed="max" departPos="random"/>
    <trip id="3" depart="7.50" from="90171086" to="-261420056" departLane="best" departSpeed="max" departPos="random"/>
    <trip id="4" depart="10.00" from="149399209#0" to="149723892#2" departLane="best" departSpeed="max" departPos="random"/>
    <trip id="5" depart="12.50" from="-4059030#0" to="-261423863#0" departLane="best" departSpeed="max" departPos="random"/>
    <trip id="6" depart="15.00" from="-3428809#0" to="1082513143#4" departLane="best" departSpeed="max" departPos="random"/>
    <trip id="7" depart="17.50" from="3527440#0" to="689346034" departLane="best" departSpeed="max" departPos="random"/>
    <trip id="8" depart="20.00" from="863412046" to="422738801#1" departLane="best" departSpeed="max" departPos="random"/>
    <trip id="9" depart="22.50" from="-154343753" to="160611606" departLane="best" departSpeed="max" departPos="random"/>
    <trip id="10" depart="25.00" from="4211633" to="-261423864#0" departLane="best" departSpeed="max" departPos="random"/>
    <trip id="11" depart="27.50" from="1234351189#1" to="3428811" departLane="best" departSpeed="max" departPos="random"/>
    <trip id="12" depart="30.00" from="-90051672#2" to="461183387#2" departLane="best" departSpeed="max" departPos="random"/>
    <trip id="13" depart="32.50" from="3454369#0" to="4059064#2" departLane="best" departSpeed="max" departPos="random"/>
    <trip id="14" depart="35.00" from="1082513142#0" to="3577471#2" departLane="best" departSpeed="max" departPos="random"/>
    <trip id="15" depart="37.50" from="261423862#0" to="503190615#0" departLane="best" departSpeed="max" departPos="random"/>
    <trip id="16" depart="40.00" from="1307793411#0" to="-1157505358#1" departLane="best" departSpeed="max" departPos="random"/>
    <trip id="17" depart="42.50" from="-36966884" to="171942531" departLane="best" departSpeed="max" departPos="random"/>
    <trip id="18" depart="45.00" from="536435187#0" to="4059055#0" departLane="best" departSpeed="max" departPos="random"/>
    <trip id="19" depart="47.50" from="160803840" to="-566409374#1" departLane="best" departSpeed="max" departPos="random"/>
    <trip id="20" depart="50.00" from="4059064#2" to="-261741010#4" departLane="best" departSpeed="max" departPos="random"/>
    <trip id="21" depart="52.50" from="-326502793#2" to="-326502793#3" departLane="best" departSpeed="max" departPos="random"/>
    <trip id="22" depart="55.00" from="4818835#1" to="-497870890" departLane="best" departSpeed="max" departPos="random"/>
    <trip id="23" depart="57.50" from="-1082513142#1" to="3577471#2" departLane="best" departSpeed="max" departPos="random"/>
    <trip id="24" depart="60.00" from="-321883383#1" to="689346038" departLane="best" departSpeed="max" departPos="random"/>
    <trip id="25" depart="62.50" from="-36966884" to="-864558904#0" departLane="best" departSpeed="max" departPos="random"/>
    <trip id="26" depart="65.00" from="3100654#2" to="668571648#1" departLane="best" departSpeed="max" departPos="random"/>
    <trip id="27" depart="67.50" from="-E0" to="-428036770#1" departLane="best" departSpeed="max" departPos="random"/>
    <trip id="28" depart="70.00" from="-461183387#0" to="-1234351189#1" departLane="best" departSpeed="max" departPos="random"/>
    <trip id="29" depart="72.50" from="-158008428#1" to="1301927136#0" departLane="best" departSpeed="max" departPos="random"/>
    <trip id="30" depart="75.00" from="-1082513142#2" to="171964224#0" departLane="best" departSpeed="max" departPos="random"/>
    <trip id="31" depart="77.50" from="-1025127002" to="1025127003" departLane="best" departSpeed="max" departPos="random"/>
    <trip id="32" depart="80.00" from="86548565#0" to="3577471#3" departLane="best" departSpeed="max" departPos="random"/>
    <trip id="33" depart="82.50" from="3577471#1" to="4818835#3" departLane="best" departSpeed="max" departPos="random"/>
    <trip id="34" depart="85.00" from="477157310" to="261741010#4" departLane="best" departSpeed="max" departPos="random"/>
    <trip id="35" depart="87.50" from="310639257#0" to="159234717#1" departLane="best" departSpeed="max" departPos="random"/>
    <trip id="36" depart="90.00" from="-184170266#0" to="261564748#1" departLane="best" departSpeed="max" departPos="random"/>
    <trip id="37" depart="92.50" from="-154343753" to="1082513143#1" departLane="best" departSpeed="max" departPos="random"/>
    <trip id="38" depart="95.00" from="376239874" to="422738802#0" departLane="best" departSpeed="max" departPos="random"/>
    <trip id="39" depart="97.50" from="-342317279" to="-428036770#0" departLane="best" departSpeed="max" departPos="random"/>
    <trip id="40" depart="100.00" from="149723891" to="158008428#1" departLane="best" departSpeed="max" departPos="random"/>
    <trip id="41" depart="102.50" from="-362075987" to="-261750863#0" departLane="best" departSpeed="max" departPos="random"/>
    <trip id="42" depart="105.00" from="477157310" to="1025860967#1" departLane="best" departSpeed="max" departPos="random"/>
    <trip id="43" depart="107.50" from="-159234717#2" to="159234717#0" departLane="best" departSpeed="max" departPos="random"/>
    <trip id="44" depart="110.00" from="-4059055#2" to="-149723891" departLane="best" departSpeed="max" departPos="random"/>
    <trip id="45" depart="112.50" from="4059064#0" to="1157505360" departLane="best" departSpeed="max" departPos="random"/>
    <trip id="46" depart="115.00" from="149399210#1" to="477157310" departLane="best" departSpeed="max" departPos="random"/>
    <trip id="47" depart="117.50" from="-4212342" to="428036775#0" departLane="best" departSpeed="max" departPos="random"/>
    <trip id="48" depart="120.00" from="3454808#0" to="-1157505360" departLane="best" departSpeed="max" departPos="random"/>
    <trip id="49" depart="122.50" from="-3577472#2" to="-1133544957" departLane="best" departSpeed="max" departPos="random"/>
    <trip id="50" depart="125.00" from="90051672#2" to="-261750866" departLane="best" departSpeed="max" departPos="random"/>
    <trip id="51" depart="127.50" from="-1301927136#1" to="-1234351298" departLane="best" departSpeed="max" departPos="random"/>
    <trip id="52" depart="130.00" from="863412061" to="151549312" departLane="best" departSpeed="max" departPos="random"/>
    <trip id="53" depart="132.50" from="179310598#0" to="-3428809#1" departLane="best" departSpeed="max" departPos="random"/>
    <trip id="54" depart="135.00" from="-3428809#0" to="310639256" departLane="best" departSpeed="max" departPos="random"/>
    <trip id="55" depart="137.50" from="-999241257#4" to="560562743" departLane="best" departSpeed="max" departPos="random"/>
    <trip id="56" depart="140.00" from="342317279" to="184170266#0" departLane="best" departSpeed="max" departPos="random"/>
    <trip id="57" depart="142.50" from="4059065#1" to="3924806" departLane="best" departSpeed="max" departPos="random"/>
    <trip id="58" depart="145.00" from="-321883383#1" to="4212342" departLane="best" departSpeed="max" departPos="random"/>
    <trip id="59" depart="147.50" from="863412048" to="261743231" departLane="best" departSpeed="max" departPos="random"/>
    <trip id="60" depart="150.00" from="-3100654#1" to="3454808#1" departLane="best" departSpeed="max" departPos="random"/>
    <trip id="61" depart="152.50" from="36966883" to="1082513141" departLane="best" departSpeed="max" departPos="random"/>
    <trip id="62" depart="155.00" from="4295992#2" to="-1234351125#1" departLane="best" departSpeed="max" departPos="random"/>
    <trip id="63" depart="157.50" from="36894772#2" to="326502793#4" departLane="best" departSpeed="max" departPos="random"/>
    <trip id="64" depart="160.00" from="-159234717#2" to="261418601" departLane="best" departSpeed="max" departPos="random"/>
    <trip id="65" depart="162.50" from="261741010#3" to="1157505352" departLane="best" departSpeed="max" departPos="random"/>
    <trip id="66" depart="165.00" from="-3428809#5" to="171964224#0" departLane="best" departSpeed="max" departPos="random"/>
    <trip id="67" depart="167.50" from="-1234351189#0" to="261423864#1" departLane="best" departSpeed="max" departPos="random"/>
    <trip id="68" depart="170.00" from="-4211635#1" to="1082513143#3" departLane="best" departSpeed="max" departPos="random"/>
    <trip id="69" depart="172.50" from="-261418596" to="536435187#3" departLane="best" departSpeed="max" departPos="random"/>
    <trip id="70" depart="175.00" from="159234717#0" to="-415869887" departLane="best" departSpeed="max" departPos="random"/>
    <trip id="71" depart="177.50" from="24581553" to="36966884" departLane="best" departSpeed="max" departPos="random"/>
    <trip id="72" depart="180.00" from="-4087296" to="160803838#0" departLane="best" departSpeed="max" departPos="random"/>
    <trip id="73" depart="182.50" from="-261420056" to="-261423863#1" departLane="best" departSpeed="max" departPos="random"/>
    <trip id="74" depart="185.00" from="-3454368#2" to="150078330" departLane="best" departSpeed="max" departPos="random"/>
    <trip id="75" depart="187.50" from="-261423862#2" to="159902718#3" departLane="best" departSpeed="max" departPos="random"/>
    <trip id="76" depart="190.00" from="422738801#1" to="1025860967#0" departLane="best" departSpeed="max" departPos="random"/>
    <trip id="77" depart="192.50" from="4818835#3" to="160803845#0" departLane="best" departSpeed="max" departPos="random"/>
    <trip id="78" depart="195.00" from="68992847#0" to="-519956418#0" departLane="best" departSpeed="max" departPos="random"/>
    <trip id="79" depart="197.50" from="-1082513142#2" to="36966883" departLane="best" departSpeed="max" departPos="random"/>
    <trip id="80" depart="200.00" from="1082513143#3" to="-3428809#3" departLane="best" departSpeed="max" departPos="random"/>
    <trip id="81" depart="202.50" from="159902718#1" to="3428809#4" departLane="best" departSpeed="max" departPos="random"/>
    <trip id="82" depart="205.00" from="3527424#1" to="4211384#1" departLane="best" departSpeed="max" departPos="random"/>
    <trip id="83" depart="207.50" from="36894772#3" to="4818835#3" departLane="best" departSpeed="max" departPos="random"/>
    <trip id="84" depart="210.00" from="384971140#1" to="-4818835#0" departLane="best" departSpeed="max" departPos="random"/>
    <trip id="85" depart="212.50" from="1157505352" to="49931897" departLane="best" departSpeed="max" departPos="random"/>
    <trip id="86" depart="215.00" from="-90051672#2" to="999241257#3" departLane="best" departSpeed="max" departPos="random"/>
    <trip id="87" depart="217.50" from="-261423865#0" to="689346035#0" departLane="best" departSpeed="max" departPos="random"/>
    <trip id="88" depart="220.00" from="384971140#0" to="1335949463" departLane="best" departSpeed="max" departPos="random"/>
    <trip id="89" depart="222.50" from="-160611126#1" to="181581823" departLane="best" departSpeed="max" departPos="random"/>
    <trip id="90" depart="225.00" from="1234351189#1" to="4935749" departLane="best" departSpeed="max" departPos="random"/>
    <trip id="91" depart="227.50" from="261564748#3" to="4212342" departLane="best" departSpeed="max" departPos="random"/>
    <trip id="92" depart="230.00" from="-1082513142#2" to="4211384#0" departLane="best" departSpeed="max" departPos="random"/>
    <trip id="93" depart="232.50" from="162058716#1" to="-3100654#0" departLane="best" departSpeed="max" departPos="random"/>
    <trip id="94" depart="235.00" from="-4295992#2" to="4212342" departLane="best" departSpeed="max" departPos="random"/>
    <trip id="95" depart="237.50" from="184170266#1" to="477157312#0" departLane="best" departSpeed="max" departPos="random"/>
    <trip id="96" depart="240.00" from="4059033#2" to="-1234351298" departLane="best" departSpeed="max" departPos="random"/>
    <trip id="97" depart="242.50" from="-1301927136#0" to="-1157505357" departLane="best" departSpeed="max" departPos="random"/>
    <trip id="98" depart="245.00" from="-160611126#1" to="-1157505362" departLane="best" departSpeed="max" departPos="random"/>
    <trip id="99" depart="247.50" from="261423862#2" to="-999241257#1" departLane="best" departSpeed="max" departPos="random"/>
    <trip id="100" depart="250.00" from="159902717" to="158008428#1" departLane="best" departSpeed="max" departPos="random"/>
    <trip id="101" depart="252.50" from="310639257#0" to="422738801#0" departLane="best" departSpeed="max" departPos="random"/>
    <trip id="102" depart="255.00" from="149723891" to="160484291#3" departLane="best" departSpeed="max" departPos="random"/>
    <trip id="103" depart="257.50" from="566409382#0" to="160031108#0" departLane="best" departSpeed="max" departPos="random"/>
    <trip id="104" depart="260.00" from="1082513143#1" to="3577472#2" departLane="best" departSpeed="max" departPos="random"/>
    <trip id="105" depart="262.50" from="4295992#0" to="4211384#1" departLane="best" departSpeed="max" departPos="random"/>
    <trip id="106" depart="265.00" from="1234351189#0" to="-159234717#1" departLane="best" departSpeed="max" departPos="random"/>
    <trip id="107" depart="267.50" from="326502793#4" to="160803847" departLane="best" departSpeed="max" departPos="random"/>
    <trip id="108" depart="270.00" from="566409377#0" to="-566409382#2" departLane="best" departSpeed="max" departPos="random"/>
    <trip id="109" depart="272.50" from="159902718#2" to="261423864#0" departLane="best" departSpeed="max" departPos="random"/>
    <trip id="110" depart="275.00" from="422738801#2" to="-261423864#1" departLane="best" departSpeed="max" departPos="random"/>
    <trip id="111" depart="277.50" from="-1082513143#3" to="-149723892#2" departLane="best" departSpeed="max" departPos="random"/>
    <trip id="112" depart="280.00" from="-160611126#5" to="261741010#2" departLane="best" departSpeed="max" departPos="random"/>
    <trip id="113" depart="282.50" from="160803841" to="-342317279" departLane="best" departSpeed="max" departPos="random"/>
    <trip id="114" depart="285.00" from="160803841" to="-310639257#0" departLane="best" departSpeed="max" departPos="random"/>
    <trip id="115" depart="287.50" from="-326502793#1" to="317552926" departLane="best" departSpeed="max" departPos="random"/>
    <trip id="116" depart="290.00" from="4295990#1" to="326502793#4" departLane="best" departSpeed="max" departPos="random"/>
    <trip id="117" depart="292.50" from="864558904#0" to="689346038" departLane="best" departSpeed="max" departPos="random"/>
    <trip id="118" depart="295.00" from="-3577471#1" to="-3454180#0" departLane="best" departSpeed="max" departPos="random"/>
    <trip id="119" depart="297.50" from="428021296#0" to="753584090" departLane="best" departSpeed="max" departPos="random"/>
    <trip id="120" depart="300.00" from="-3428809#3" to="-1082513143#0" departLane="best" departSpeed="max" departPos="random"/>
    <trip id="121" depart="302.50" from="36894772#3" to="-1157505362" departLane="best" departSpeed="max" departPos="random"/>
    <trip id="122" depart="305.00" from="-3577471#1" to="523772484" departLane="best" departSpeed="max" departPos="random"/>
    <trip id="123" depart="307.50" from="-3454180#0" to="428036775#2" departLane="best" departSpeed="max" departPos="random"/>
    <trip id="124" depart="310.00" from="4059037" to="-326502793#0" departLane="best" departSpeed="max" departPos="random"/>
    <trip id="125" depart="312.50" from="422738802#0" to="-384971140#4" departLane="best" departSpeed="max" departPos="random"/>
    <trip id="126" depart="315.00" from="-3577471#0" to="-566409374#0" departLane="best" departSpeed="max" departPos="random"/>
    <trip id="127" depart="317.50" from="230765089#1" to="3454808#0" departLane="best" departSpeed="max" departPos="random"/>
    <trip id="128" depart="320.00" from="384971140#4" to="1335949463" departLane="best" departSpeed="max" departPos="random"/>
    <trip id="129" depart="322.50" from="3100654#1" to="160803838#0" departLane="best" departSpeed="max" departPos="random"/>
    <trip id="130" depart="325.00" from="-261741010#2" to="3454180#1" departLane="best" departSpeed="max" departPos="random"/>
    <trip id="131" depart="327.50" from="36966884" to="160484291#1" departLane="best" departSpeed="max" departPos="random"/>
    <trip id="132" depart="330.00" from="149399184" to="-1307793411#1" departLane="best" departSpeed="max" departPos="random"/>
    <trip id="133" depart="332.50" from="181581823" to="428036775#2" departLane="best" departSpeed="max" departPos="random"/>
    <trip id="134" depart="335.00" from="1082513142#2" to="-4818835#0" departLane="best" departSpeed="max" departPos="random"/>
    <trip id="135" depart="337.50" from="149399206#0" to="159902718#2" departLane="best" departSpeed="max" departPos="random"/>
    <trip id="136" depart="340.00" from="-428036775#0" to="321883383#1" departLane="best" departSpeed="max" departPos="random"/>
    <trip id="137" depart="342.50" from="689346038" to="162058716#1" departLane="best" departSpeed="max" departPos="random"/>
    <trip id="138" depart="345.00" from="-422738800#0" to="160803840" departLane="best" departSpeed="max" departPos="random"/>
    <trip id="139" depart="347.50" from="261564748#0" to="566409385#0" departLane="best" departSpeed="max" departPos="random"/>
    <trip id="140" depart="350.00" from="-1082513142#1" to="1157505358#1" departLane="best" departSpeed="max" departPos="random"/>
    <trip id="141" depart="352.50" from="3454808#1" to="-261741010#2" departLane="best" departSpeed="max" departPos="random"/>
    <trip id="142" depart="355.00" from="159234717#0" to="159700888#1" departLane="best" departSpeed="max" departPos="random"/>
    <trip id="143" depart="357.50" from="261564748#2" to="3428809#2" departLane="best" departSpeed="max" departPos="random"/>
    <trip id="144" depart="360.00" from="-4059037" to="3454808#0" departLane="best" departSpeed="max" departPos="random"/>
    <trip id="145" depart="362.50" from="3454808#0" to="1234351298" departLane="best" departSpeed="max" departPos="random"/>
    <trip id="146" depart="365.00" from="-261420056" to="1157505355" departLane="best" departSpeed="max" departPos="random"/>
    <trip id="147" depart="367.50" from="-566409382#2" to="3577471#0" departLane="best" departSpeed="max" departPos="random"/>
    <trip id="148" depart="370.00" from="-261741010#6" to="-261741010#4" departLane="best" departSpeed="max" departPos="random"/>
    <trip id="149" depart="372.50" from="-68992847#0" to="4570906#1" departLane="best" departSpeed="max" departPos="random"/>
    <trip id="150" depart="375.00" from="-1082513143#2" to="-3428809#0" departLane="best" departSpeed="max" departPos="random"/>
    <trip id="151" depart="377.50" from="-3577472#2" to="1119459060#1" departLane="best" departSpeed="max" departPos="random"/>
    <trip id="152" depart="380.00" from="-261418601" to="428036775#2" departLane="best" departSpeed="max" departPos="random"/>
    <trip id="153" depart="382.50" from="497870890" to="-1082513142#1" departLane="best" departSpeed="max" departPos="random"/>
    <trip id="154" depart="385.00" from="3527424#0" to="-1133544957" departLane="best" departSpeed="max" departPos="random"/>
    <trip id="155" depart="387.50" from="3428809#2" to="266635496#2" departLane="best" departSpeed="max" departPos="random"/>
    <trip id="156" depart="390.00" from="181581823" to="422738802#0" departLane="best" departSpeed="max" departPos="random"/>
    <trip id="157" depart="392.50" from="864558904#0" to="-4059055#2" departLane="best" departSpeed="max" departPos="random"/>
    <trip id="158" depart="395.00" from="1335949463" to="36894772#2" departLane="best" departSpeed="max" departPos="random"/>
    <trip id="159" depart="397.50" from="-4211635#1" to="4211383#0" departLane="best" departSpeed="max" departPos="random"/>
    <trip id="160" depart="400.00" from="-999241257#3" to="1157505356" departLane="best" departSpeed="max" departPos="random"/>
    <trip id="161" depart="402.50" from="-184170266#0" to="-3527424#1" departLane="best" departSpeed="max" departPos="random"/>
    <trip id="162" depart="405.00" from="-3100643" to="999241257#1" departLane="best" departSpeed="max" departPos="random"/>
    <trip id="163" depart="407.50" from="-1082513143#3" to="3577471#1" departLane="best" departSpeed="max" departPos="random"/>
    <trip id="164" depart="410.00" from="-321883383#2" to="261741010#3" departLane="best" departSpeed="max" departPos="random"/>
    <trip id="165" depart="412.50" from="523772484" to="160031108#1" departLane="best" departSpeed="max" departPos="random"/>
    <trip id="166" depart="415.00" from="149399184" to="149399201" departLane="best" departSpeed="max" departPos="random"/>
    <trip id="167" depart="417.50" from="230765089#1" to="999241257#5" departLane="best" departSpeed="max" departPos="random"/>
    <trip id="168" depart="420.00" from="-1082513142#0" to="1082513143#2" departLane="best" departSpeed="max" departPos="random"/>
    <trip id="169" depart="422.50" from="566409374#1" to="-1025860967#0" departLane="best" departSpeed="max" departPos="random"/>
    <trip id="170" depart="425.00" from="-160611606" to="230765089#1" departLane="best" departSpeed="max" departPos="random"/>
    <trip id="171" depart="427.50" from="755621065" to="-503190615#0" departLane="best" departSpeed="max" departPos="random"/>
    <trip id="172" depart="430.00" from="-261423865#0" to="1248871137" departLane="best" departSpeed="max" departPos="random"/>
    <trip id="173" depart="432.50" from="-3428809#3" to="184170266#0" departLane="best" departSpeed="max" departPos="random"/>
    <trip id="174" depart="435.00" from="566409385#0" to="-261423863#0" departLane="best" departSpeed="max" departPos="random"/>
    <trip id="175" depart="437.50" from="-261418601" to="123095957" departLane="best" departSpeed="max" departPos="random"/>
    <trip id="176" depart="440.00" from="-461183387#2" to="-999241257#1" departLane="best" departSpeed="max" departPos="random"/>
    <trip id="177" depart="442.50" from="-159902717" to="4211383#0" departLane="best" departSpeed="max" departPos="random"/>
    <trip id="178" depart="445.00" from="-321883383#1" to="-428036770#0" departLane="best" departSpeed="max" departPos="random"/>
    <trip id="179" depart="447.50" from="36894772#0" to="-1157505357" departLane="best" departSpeed="max" departPos="random"/>
    <trip id="180" depart="450.00" from="159234717#2" to="-384971139" departLane="best" departSpeed="max" departPos="random"/>
    <trip id="181" depart="452.50" from="3527440#0" to="-326502793#1" departLane="best" departSpeed="max" departPos="random"/>
    <trip id="182" depart="455.00" from="428021297#0" to="149399206#0" departLane="best" departSpeed="max" departPos="random"/>
    <trip id="183" depart="457.50" from="3527440#0" to="534092873" departLane="best" departSpeed="max" departPos="random"/>
    <trip id="184" depart="460.00" from="-3454180#1" to="1157505360" departLane="best" departSpeed="max" departPos="random"/>
    <trip id="185" depart="462.50" from="3527424#2" to="-415869887" departLane="best" departSpeed="max" departPos="random"/>
    <trip id="186" depart="465.00" from="3100654#0" to="668571648#1" departLane="best" departSpeed="max" departPos="random"/>
    <trip id="187" depart="467.50" from="536435187#1" to="150078330" departLane="best" departSpeed="max" departPos="random"/>
    <trip id="188" depart="470.00" from="864558904#0" to="-159902717" departLane="best" departSpeed="max" departPos="random"/>
    <trip id="189" depart="472.50" from="E1" to="422738801#2" departLane="best" departSpeed="max" departPos="random"/>
    <trip id="190" depart="475.00" from="3577472#1" to="-326502793#1" departLane="best" departSpeed="max" departPos="random"/>
    <trip id="191" depart="477.50" from="689346040" to="-68992847#1" departLane="best" departSpeed="max" departPos="random"/>
    <trip id="192" depart="480.00" from="-261420059#1" to="-1307793411#1" departLane="best" departSpeed="max" departPos="random"/>
    <trip id="193" depart="482.50" from="-321883383#2" to="-184170266#0" departLane="best" departSpeed="max" departPos="random"/>
    <trip id="194" depart="485.00" from="-3428809#0" to="1082513143#3" departLane="best" departSpeed="max" departPos="random"/>
    <trip id="195" depart="487.50" from="-3100654#1" to="1276314567" departLane="best" departSpeed="max" departPos="random"/>
    <trip id="196" depart="490.00" from="3527440#0" to="-3527424#5" departLane="best" departSpeed="max" departPos="random"/>
    <trip id="197" depart="492.50" from="3454369#0" to="317552926" departLane="best" departSpeed="max" departPos="random"/>
    <trip id="198" depart="495.00" from="741042671#1" to="3577471#3" departLane="best" departSpeed="max" departPos="random"/>
    <trip id="199" depart="497.50" from="-261420059#1" to="-428021295" departLane="best" departSpeed="max" departPos="random"/>
    <trip id="200" depart="500.00" from="149723896#0" to="1135899069" departLane="best" departSpeed="max" departPos="random"/>
    <trip id="201" depart="502.50" from="-566409382#2" to="689346034" departLane="best" departSpeed="max" departPos="random"/>
    <trip id="202" depart="505.00" from="-90051672#2" to="90051672#0" departLane="best" departSpeed="max" departPos="random"/>
    <trip id="203" depart="507.50" from="-3454180#0" to="-149723892#0" departLane="best" departSpeed="max" departPos="random"/>
    <trip id="204" depart="510.00" from="261564748#0" to="1157505355" departLane="best" departSpeed="max" departPos="random"/>
    <trip id="205" depart="512.50" from="523772484" to="1157505351" departLane="best" departSpeed="max" departPos="random"/>
    <trip id="206" depart="515.00" from="3100643" to="-149723892#1" departLane="best" departSpeed="max" departPos="random"/>
    <trip id="207" depart="517.50" from="428021296#0" to="-384971140#4" departLane="best" departSpeed="max" departPos="random"/>
    <trip id="208" depart="520.00" from="90171086" to="1082513143#4" departLane="best" departSpeed="max" departPos="random"/>
    <trip id="209" depart="522.50" from="-1157505360" to="261741010#0" departLane="best" departSpeed="max" departPos="random"/>
    <trip id="210" depart="525.00" from="160031108#1" to="461183387#0" departLane="best" departSpeed="max" departPos="random"/>
    <trip id="211" depart="527.50" from="-4059030#0" to="536435187#3" departLane="best" departSpeed="max" departPos="random"/>
    <trip id="212" depart="530.00" from="261743231" to="149399206#1" departLane="best" departSpeed="max" departPos="random"/>
    <trip id="213" depart="532.50" from="-159234717#1" to="-3527424#3" departLane="best" departSpeed="max" departPos="random"/>
    <trip id="214" depart="535.00" from="310639257#1" to="519956418#1" departLane="best" departSpeed="max" departPos="random"/>
    <trip id="215" depart="537.50" from="159234717#2" to="261741010#5" departLane="best" departSpeed="max" departPos="random"/>
    <trip id="216" depart="540.00" from="428036770#2" to="-3527424#3" departLane="best" departSpeed="max" departPos="random"/>
    <trip id="217" depart="542.50" from="566409377#0" to="-1082513142#2" departLane="best" departSpeed="max" departPos="random"/>
    <trip id="218" depart="545.00" from="-36894772#2" to="-4295992#0" departLane="best" departSpeed="max" departPos="random"/>
    <trip id="219" depart="547.50" from="-1307793411#1" to="-384971139" departLane="best" departSpeed="max" departPos="random"/>
    <trip id="220" depart="550.00" from="-160484291#2" to="-326502793#3" departLane="best" departSpeed="max" departPos="random"/>
    <trip id="221" depart="552.50" from="261741011#0" to="160611606" departLane="best" departSpeed="max" departPos="random"/>
    <trip id="222" depart="555.00" from="-90051672#2" to="261564748#1" departLane="best" departSpeed="max" departPos="random"/>
    <trip id="223" depart="557.50" from="566409382#2" to="261743231" departLane="best" departSpeed="max" departPos="random"/>
    <trip id="224" depart="560.00" from="179609886#0" to="-4818835#0" departLane="best" departSpeed="max" departPos="random"/>
    <trip id="225" depart="562.50" from="-534092873" to="-4818835#3" departLane="best" departSpeed="max" departPos="random"/>
    <trip id="226" depart="565.00" from="-261741010#1" to="160611126#5" departLane="best" departSpeed="max" departPos="random"/>
    <trip id="227" depart="567.50" from="3454808#1" to="261741011#0" departLane="best" departSpeed="max" departPos="random"/>
    <trip id="228" depart="570.00" from="90051672#0" to="1276314567" departLane="best" departSpeed="max" departPos="random"/>
    <trip id="229" depart="572.50" from="-1248871134" to="3577471#3" departLane="best" departSpeed="max" departPos="random"/>
    <trip id="230" depart="575.00" from="-261741010#4" to="-3428809#1" departLane="best" departSpeed="max" departPos="random"/>
    <trip id="231" depart="577.50" from="159908039#0" to="4059030#0" departLane="best" departSpeed="max" departPos="random"/>