<?xml version="1.0" encoding="UTF-8"?>

<!-- generated on 2025-08-03 12:43:40 by Eclipse SUMO duarouter Version 1.24.0
<duarouterConfiguration xmlns:xsi="http://www.w3.org/2001/XMLSchema-instance" xsi:noNamespaceSchemaLocation="http://sumo.dlr.de/xsd/duarouterConfiguration.xsd">

    <input>
        <net-file value="karlsruhe.net.xml"/>
        <route-files value="flows.xml"/>
    </input>

    <output>
        <output-file value="routes.rou.xml"/>
    </output>

    <report>
        <ignore-errors value="true"/>
    </report>

</duarouterConfiguration>
-->

<routes xmlns:xsi="http://www.w3.org/2001/XMLSchema-instance" xsi:noNamespaceSchemaLocation="http://sumo.dlr.de/xsd/routes_file.xsd">
    <vType id="car" length="5.00" maxSpeed="13.90" color="red" accel="2.6" decel="4.5" sigma="0.5"/>
    <vehicle id="flow1.0" type="car" depart="0.00" departLane="best" departSpeed="max">
        <route edges="-1157505360 -1157505357 -184170266#0 184170266#0 184170266#1 1157505360 1157505367 1157505362 149723891 1157505365 158008428#1 342317279 261423864#0 261423864#1 261423862#0 261423862#2 422738802#0 422738802#1 422738802#2 422738802#4 539890287 422738800#1 519956415#1 1025860967#0 1025860967#1 171942531 519956418#1 503190615#0"/>
    </vehicle>
    <vehicle id="flow2.0" type="car" depart="0.00" departLane="best" departSpeed="max">
        <route edges="-1003269855#2 -1003269855#0 -181581824#1 -560562743 -1248871134 -1248871137 -310639256 -534092873 -261741010#6 -261741010#4 -261741010#3 -261741010#2 -261741010#1 -98331811 4059065#0 4059065#1 171948480 536435187#3 4818815 755621065 149399210#1 149399209#0 523772481 261750867 -261750863#0 -1157505352 -1157505351 -428036770#2 -428036770#1 -428036770#0 -428036774#1 -384971140#4 -384971140#3 -384971140#1 -384971140#0 86548565#1"/>
    </vehicle>
    <vehicle id="flow1.1" type="car" depart="6.00" departLane="best" departSpeed="max">
        <route edges="-1157505360 -1157505357 -184170266#0 184170266#0 184170266#1 1157505360 1157505367 1157505362 149723891 1157505365 158008428#1 342317279 261423864#0 261423864#1 261423862#0 261423862#2 422738802#0 422738802#1 422738802#2 422738802#4 539890287 422738800#1 519956415#1 1025860967#0 1025860967#1 171942531 519956418#1 503190615#0"/>
    </vehicle>
    <vehicle id="flow2.1" type="car" depart="9.00" departLane="best" departSpeed="max">
        <route edges="-1003269855#2 -1003269855#0 -181581824#1 -560562743 -1248871134 -1248871137 -310639256 -534092873 -261741010#6 -261741010#4 -261741010#3 -261741010#2 -261741010#1 -98331811 4059065#0 4059065#1 171948480 536435187#3 4818815 755621065 149399210#1 149399209#0 523772481 261750867 -261750863#0 -1157505352 -1157505351 -428036770#2 -428036770#1 -428036770#0 -428036774#1 -384971140#4 -384971140#3 -384971140#1 -384971140#0 86548565#1"/>
    </vehicle>
    <vehicle id="flow1.2" type="car" depart="12.00" departLane="best" departSpeed="max">
        <route edges="-1157505360 -1157505357 -184170266#0 184170266#0 184170266#1 1157505360 1157505367 1157505362 149723891 1157505365 158008428#1 342317279 261423864#0 261423864#1 261423862#0 261423862#2 422738802#0 422738802#1 422738802#2 422738802#4 539890287 422738800#1 519956415#1 1025860967#0 1025860967#1 171942531 519956418#1 503190615#0"/>
    </vehicle>
    <vehicle id="flow1.3" type="car" depart="18.00" departLane="best" departSpeed="max">
        <route edges="-1157505360 -1157505357 -184170266#0 184170266#0 184170266#1 1157505360 1157505367 1157505362 149723891 1157505365 158008428#1 342317279 261423864#0 261423864#1 261423862#0 261423862#2 422738802#0 422738802#1 422738802#2 422738802#4 539890287 422738800#1 519956415#1 1025860967#0 1025860967#1 171942531 519956418#1 503190615#0"/>
    </vehicle>
    <vehicle id="flow2.2" type="car" depart="18.00" departLane="best" departSpeed="max">
        <route edges="-1003269855#2 -1003269855#0 -181581824#1 -560562743 -1248871134 -1248871137 -310639256 -534092873 -261741010#6 -261741010#4 -261741010#3 -261741010#2 -261741010#1 -98331811 4059065#0 4059065#1 171948480 536435187#3 4818815 755621065 149399210#1 149399209#0 523772481 261750867 -261750863#0 -1157505352 -1157505351 -428036770#2 -428036770#1 -428036770#0 -428036774#1 -384971140#4 -384971140#3 -384971140#1 -384971140#0 86548565#1"/>
    </vehicle>
    <vehicle id="flow1.4" type="car" depart="24.00" departLane="best" departSpeed="max">
        <route edges="-1157505360 -1157505357 -184170266#0 184170266#0 184170266#1 1157505360 1157505367 1157505362 149723891 1157505365 158008428#1 342317279 261423864#0 261423864#1 261423862#0 261423862#2 422738802#0 422738802#1 422738802#2 422738802#4 539890287 422738800#1 519956415#1 1025860967#0 1025860967#1 171942531 519956418#1 503190615#0"/>
    </vehicle>
    <vehicle id="flow2.3" type="car" depart="27.00" departLane="best" departSpeed="max">
        <route edges="-1003269855#2 -1003269855#0 -181581824#1 -560562743 -1248871134 -1248871137 -310639256 -534092873 -261741010#6 -261741010#4 -261741010#3 -261741010#2 -261741010#1 -98331811 4059065#0 4059065#1 171948480 536435187#3 4818815 755621065 149399210#1 149399209#0 523772481 261750867 -261750863#0 -1157505352 -1157505351 -428036770#2 -428036770#1 -428036770#0 -428036774#1 -384971140#4 -384971140#3 -384971140#1 -384971140#0 86548565#1"/>
    </vehicle>
    <vehicle id="flow1.5" type="car" depart="30.00" departLane="best" departSpeed="max">
        <route edges="-1157505360 -1157505357 -184170266#0 184170266#0 184170266#1 1157505360 1157505367 1157505362 149723891 1157505365 158008428#1 342317279 261423864#0 261423864#1 261423862#0 261423862#2 422738802#0 422738802#1 422738802#2 422738802#4 539890287 422738800#1 519956415#1 1025860967#0 1025860967#1 171942531 519956418#1 503190615#0"/>
    </vehicle>
    <vehicle id="flow1.6" type="car" depart="36.00" departLane="best" departSpeed="max">
        <route edges="-1157505360 -1157505357 -184170266#0 184170266#0 184170266#1 1157505360 1157505367 1157505362 149723891 1157505365 158008428#1 342317279 261423864#0 261423864#1 261423862#0 261423862#2 422738802#0 422738802#1 422738802#2 422738802#4 539890287 422738800#1 519956415#1 1025860967#0 1025860967#1 171942531 519956418#1 503190615#0"/>
    </vehicle>
    <vehicle id="flow2.4" type="car" depart="36.00" departLane="best" departSpeed="max">
        <route edges="-1003269855#2 -1003269855#0 -181581824#1 -560562743 -1248871134 -1248871137 -310639256 -534092873 -261741010#6 -261741010#4 -261741010#3 -261741010#2 -261741010#1 -98331811 4059065#0 4059065#1 171948480 536435187#3 4818815 755621065 149399210#1 149399209#0 523772481 261750867 -261750863#0 -1157505352 -1157505351 -428036770#2 -428036770#1 -428036770#0 -428036774#1 -384971140#4 -384971140#3 -384971140#1 -384971140#0 86548565#1"/>
    </vehicle>
    <vehicle id="flow1.7" type="car" depart="42.00" departLane="best" departSpeed="max">
        <route edges="-1157505360 -1157505357 -184170266#0 184170266#0 184170266#1 1157505360 1157505367 1157505362 149723891 1157505365 158008428#1 342317279 261423864#0 261423864#1 261423862#0 261423862#2 422738802#0 422738802#1 422738802#2 422738802#4 539890287 422738800#1 519956415#1 1025860967#0 1025860967#1 171942531 519956418#1 503190615#0"/>
    </vehicle>
    <vehicle id="flow2.5" type="car" depart="45.00" departLane="best" departSpeed="max">
        <route edges="-1003269855#2 -1003269855#0 -181581824#1 -560562743 -1248871134 -1248871137 -310639256 -534092873 -261741010#6 -261741010#4 -261741010#3 -261741010#2 -261741010#1 -98331811 4059065#0 4059065#1 171948480 536435187#3 4818815 755621065 149399210#1 149399209#0 523772481 261750867 -261750863#0 -1157505352 -1157505351 -428036770#2 -428036770#1 -428036770#0 -428036774#1 -384971140#4 -384971140#3 -384971140#1 -384971140#0 86548565#1"/>
    </vehicle>
    <vehicle id="flow1.8" type="car" depart="48.00" departLane="best" departSpeed="max">
        <route edges="-1157505360 -1157505357 -184170266#0 184170266#0 184170266#1 1157505360 1157505367 1157505362 149723891 1157505365 158008428#1 342317279 261423864#0 261423864#1 261423862#0 261423862#2 422738802#0 422738802#1 422738802#2 422738802#4 539890287 422738800#1 519956415#1 1025860967#0 1025860967#1 171942531 519956418#1 503190615#0"/>
    </vehicle>
    <vehicle id="flow1.9" type="car" depart="54.00" departLane="best" departSpeed="max">
        <route edges="-1157505360 -1157505357 -184170266#0 184170266#0 184170266#1 1157505360 1157505367 1157505362 149723891 1157505365 158008428#1 342317279 261423864#0 261423864#1 261423862#0 261423862#2 422738802#0 422738802#1 422738802#2 422738802#4 539890287 422738800#1 519956415#1 1025860967#0 1025860967#1 171942531 519956418#1 503190615#0"/>
    </vehicle>
    <vehicle id="flow2.6" type="car" depart="54.00" departLane="best" departSpeed="max">
        <route edges="-1003269855#2 -1003269855#0 -181581824#1 -560562743 -1248871134 -1248871137 -310639256 -534092873 -261741010#6 -261741010#4 -261741010#3 -261741010#2 -261741010#1 -98331811 4059065#0 4059065#1 171948480 536435187#3 4818815 755621065 149399210#1 149399209#0 523772481 261750867 -261750863#0 -1157505352 -1157505351 -428036770#2 -428036770#1 -428036770#0 -428036774#1 -384971140#4 -384971140#3 -384971140#1 -384971140#0 86548565#1"/>
    </vehicle>
    <vehicle id="flow1.10" type="car" depart="60.00" departLane="best" departSpeed="max">
        <route edges="-1157505360 -1157505357 -184170266#0 184170266#0 184170266#1 1157505360 1157505367 1157505362 149723891 1157505365 158008428#1 342317279 261423864#0 261423864#1 261423862#0 261423862#2 422738802#0 422738802#1 422738802#2 422738802#4 539890287 422738800#1 519956415#1 1025860967#0 1025860967#1 171942531 519956418#1 503190615#0"/>
    </vehicle>
    <vehicle id="flow2.7" type="car" depart="63.00" departLane="best" departSpeed="max">
        <route edges="-1003269855#2 -1003269855#0 -181581824#1 -560562743 -1248871134 -1248871137 -310639256 -534092873 -261741010#6 -261741010#4 -261741010#3 -261741010#2 -261741010#1 -98331811 4059065#0 4059065#1 171948480 536435187#3 4818815 755621065 149399210#1 149399209#0 523772481 261750867 -261750863#0 -1157505352 -1157505351 -428036770#2 -428036770#1 -428036770#0 -428036774#1 -384971140#4 -384971140#3 -384971140#1 -384971140#0 86548565#1"/>
    </vehicle>
    <vehicle id="flow1.11" type="car" depart="66.00" departLane="best" departSpeed="max">
        <route edges="-1157505360 -1157505357 -184170266#0 184170266#0 184170266#1 1157505360 1157505367 1157505362 149723891 1157505365 158008428#1 342317279 261423864#0 261423864#1 261423862#0 261423862#2 422738802#0 422738802#1 422738802#2 422738802#4 539890287 422738800#1 519956415#1 1025860967#0 1025860967#1 171942531 519956418#1 503190615#0"/>
    </vehicle>
    <vehicle id="flow1.12" type="car" depart="72.00" departLane="best" departSpeed="max">
        <route edges="-1157505360 -1157505357 -184170266#0 184170266#0 184170266#1 1157505360 1157505367 1157505362 149723891 1157505365 158008428#1 342317279 261423864#0 261423864#1 261423862#0 261423862#2 422738802#0 422738802#1 422738802#2 422738802#4 539890287 422738800#1 519956415#1 1025860967#0 1025860967#1 171942531 519956418#1 503190615#0"/>
    </vehicle>
    <vehicle id="flow2.8" type="car" depart="72.00" departLane="best" departSpeed="max">
        <route edges="-1003269855#2 -1003269855#0 -181581824#1 -560562743 -1248871134 -1248871137 -310639256 -534092873 -261741010#6 -261741010#4 -261741010#3 -261741010#2 -261741010#1 -98331811 4059065#0 4059065#1 171948480 536435187#3 4818815 755621065 149399210#1 149399209#0 523772481 261750867 -261750863#0 -1157505352 -1157505351 -428036770#2 -428036770#1 -428036770#0 -428036774#1 -384971140#4 -384971140#3 -384971140#1 -384971140#0 86548565#1"/>
    </vehicle>
    <vehicle id="flow1.13" type="car" depart="78.00" departLane="best" departSpeed="max">
        <route edges="-1157505360 -1157505357 -184170266#0 184170266#0 184170266#1 1157505360 1157505367 1157505362 149723891 1157505365 158008428#1 342317279 261423864#0 261423864#1 261423862#0 261423862#2 422738802#0 422738802#1 422738802#2 422738802#4 539890287 422738800#1 519956415#1 1025860967#0 1025860967#1 171942531 519956418#1 503190615#0"/>
    </vehicle>
    <vehicle id="flow2.9" type="car" depart="81.00" departLane="best" departSpeed="max">
        <route edges="-1003269855#2 -1003269855#0 -181581824#1 -560562743 -1248871134 -1248871137 -310639256 -534092873 -261741010#6 -261741010#4 -261741010#3 -261741010#2 -261741010#1 -98331811 4059065#0 4059065#1 171948480 536435187#3 4818815 755621065 149399210#1 149399209#0 523772481 261750867 -261750863#0 -1157505352 -1157505351 -428036770#2 -428036770#1 -428036770#0 -428036774#1 -384971140#4 -384971140#3 -384971140#1 -384971140#0 86548565#1"/>
    </vehicle>
    <vehicle id="flow1.14" type="car" depart="84.00" departLane="best" departSpeed="max">
        <route edges="-1157505360 -1157505357 -184170266#0 184170266#0 184170266#1 1157505360 1157505367 1157505362 149723891 1157505365 158008428#1 342317279 261423864#0 261423864#1 261423862#0 261423862#2 422738802#0 422738802#1 422738802#2 422738802#4 539890287 422738800#1 519956415#1 1025860967#0 1025860967#1 171942531 519956418#1 503190615#0"/>
    </vehicle>
    <vehicle id="flow1.15" type="car" depart="90.00" departLane="best" departSpeed="max">
        <route edges="-1157505360 -1157505357 -184170266#0 184170266#0 184170266#1 1157505360 1157505367 1157505362 149723891 1157505365 158008428#1 342317279 261423864#0 261423864#1 261423862#0 261423862#2 422738802#0 422738802#1 422738802#2 422738802#4 539890287 422738800#1 519956415#1 1025860967#0 1025860967#1 171942531 519956418#1 503190615#0"/>
    </vehicle>
    <vehicle id="flow2.10" type="car" depart="90.00" departLane="best" departSpeed="max">
        <route edges="-1003269855#2 -1003269855#0 -181581824#1 -560562743 -1248871134 -1248871137 -310639256 -534092873 -261741010#6 -261741010#4 -261741010#3 -261741010#2 -261741010#1 -98331811 4059065#0 4059065#1 171948480 536435187#3 4818815 755621065 149399210#1 149399209#0 523772481 261750867 -261750863#0 -1157505352 -1157505351 -428036770#2 -428036770#1 -428036770#0 -428036774#1 -384971140#4 -384971140#3 -384971140#1 -384971140#0 86548565#1"/>
    </vehicle>
    <vehicle id="flow1.16" type="car" depart="96.00" departLane="best" departSpeed="max">
        <route edges="-1157505360 -1157505357 -184170266#0 184170266#0 184170266#1 1157505360 1157505367 1157505362 149723891 1157505365 158008428#1 342317279 261423864#0 261423864#1 261423862#0 261423862#2 422738802#0 422738802#1 422738802#2 422738802#4 539890287 422738800#1 519956415#1 1025860967#0 1025860967#1 171942531 519956418#1 503190615#0"/>
    </vehicle>
    <vehicle id="flow2.11" type="car" depart="99.00" departLane="best" departSpeed="max">
        <route edges="-1003269855#2 -1003269855#0 -181581824#1 -560562743 -1248871134 -1248871137 -310639256 -534092873 -261741010#6 -261741010#4 -261741010#3 -261741010#2 -261741010#1 -98331811 4059065#0 4059065#1 171948480 536435187#3 4818815 755621065 149399210#1 149399209#0 523772481 261750867 -261750863#0 -1157505352 -1157505351 -428036770#2 -428036770#1 -428036770#0 -428036774#1 -384971140#4 -384971140#3 -384971140#1 -384971140#0 86548565#1"/>
    </vehicle>
    <vehicle id="flow1.17" type="car" depart="102.00" departLane="best" departSpeed="max">
        <route edges="-1157505360 -1157505357 -184170266#0 184170266#0 184170266#1 1157505360 1157505367 1157505362 149723891 1157505365 158008428#1 342317279 261423864#0 261423864#1 261423862#0 261423862#2 422738802#0 422738802#1 422738802#2 422738802#4 539890287 422738800#1 519956415#1 1025860967#0 1025860967#1 171942531 519956418#1 503190615#0"/>
    </vehicle>
    <vehicle id="flow1.18" type="car" depart="108.00" departLane="best" departSpeed="max">
        <route edges="-1157505360 -1157505357 -184170266#0 184170266#0 184170266#1 1157505360 1157505367 1157505362 149723891 1157505365 158008428#1 342317279 261423864#0 261423864#1 261423862#0 261423862#2 422738802#0 422738802#1 422738802#2 422738802#4 539890287 422738800#1 519956415#1 1025860967#0 1025860967#1 171942531 519956418#1 503190615#0"/>
    </vehicle>
    <vehicle id="flow2.12" type="car" depart="108.00" departLane="best" departSpeed="max">
        <route edges="-1003269855#2 -1003269855#0 -181581824#1 -560562743 -1248871134 -1248871137 -310639256 -534092873 -261741010#6 -261741010#4 -261741010#3 -261741010#2 -261741010#1 -98331811 4059065#0 4059065#1 171948480 536435187#3 4818815 755621065 149399210#1 149399209#0 523772481 261750867 -261750863#0 -1157505352 -1157505351 -428036770#2 -428036770#1 -428036770#0 -428036774#1 -384971140#4 -384971140#3 -384971140#1 -384971140#0 86548565#1"/>
    </vehicle>
    <vehicle id="flow1.19" type="car" depart="114.00" departLane="best" departSpeed="max">
        <route edges="-1157505360 -1157505357 -184170266#0 184170266#0 184170266#1 1157505360 1157505367 1157505362 149723891 1157505365 158008428#1 342317279 261423864#0 261423864#1 261423862#0 261423862#2 422738802#0 422738802#1 422738802#2 422738802#4 539890287 422738800#1 519956415#1 1025860967#0 1025860967#1 171942531 519956418#1 503190615#0"/>
    </vehicle>
    <vehicle id="flow2.13" type="car" depart="117.00" departLane="best" departSpeed="max">
        <route edges="-1003269855#2 -1003269855#0 -181581824#1 -560562743 -1248871134 -1248871137 -310639256 -534092873 -261741010#6 -261741010#4 -261741010#3 -261741010#2 -261741010#1 -98331811 4059065#0 4059065#1 171948480 536435187#3 4818815 755621065 149399210#1 149399209#0 523772481 261750867 -261750863#0 -1157505352 -1157505351 -428036770#2 -428036770#1 -428036770#0 -428036774#1 -384971140#4 -384971140#3 -384971140#1 -384971140#0 86548565#1"/>
    </vehicle>
    <vehicle id="flow1.20" type="car" depart="120.00" departLane="best" departSpeed="max">
        <route edges="-1157505360 -1157505357 -184170266#0 184170266#0 184170266#1 1157505360 1157505367 1157505362 149723891 1157505365 158008428#1 342317279 261423864#0 261423864#1 261423862#0 261423862#2 422738802#0 422738802#1 422738802#2 422738802#4 539890287 422738800#1 519956415#1 1025860967#0 1025860967#1 171942531 519956418#1 503190615#0"/>
    </vehicle>
    <vehicle id="flow1.21" type="car" depart="126.00" departLane="best" departSpeed="max">
        <route edges="-1157505360 -1157505357 -184170266#0 184170266#0 184170266#1 1157505360 1157505367 1157505362 149723891 1157505365 158008428#1 342317279 261423864#0 261423864#1 261423862#0 261423862#2 422738802#0 422738802#1 422738802#2 422738802#4 539890287 422738800#1 519956415#1 1025860967#0 1025860967#1 171942531 519956418#1 503190615#0"/>
    </vehicle>
    <vehicle id="flow2.14" type="car" depart="126.00" departLane="best" departSpeed="max">
        <route edges="-1003269855#2 -1003269855#0 -181581824#1 -560562743 -1248871134 -1248871137 -310639256 -534092873 -261741010#6 -261741010#4 -261741010#3 -261741010#2 -261741010#1 -98331811 4059065#0 4059065#1 171948480 536435187#3 4818815 755621065 149399210#1 149399209#0 523772481 261750867 -261750863#0 -1157505352 -1157505351 -428036770#2 -428036770#1 -428036770#0 -428036774#1 -384971140#4 -384971140#3 -384971140#1 -384971140#0 86548565#1"/>
    </vehicle>
    <vehicle id="flow1.22" type="car" depart="132.00" departLane="best" departSpeed="max">
        <route edges="-1157505360 -1157505357 -184170266#0 184170266#0 184170266#1 1157505360 1157505367 1157505362 149723891 1157505365 158008428#1 342317279 261423864#0 261423864#1 261423862#0 261423862#2 422738802#0 422738802#1 422738802#2 422738802#4 539890287 422738800#1 519956415#1 1025860967#0 1025860967#1 171942531 519956418#1 503190615#0"/>
    </vehicle>
    <vehicle id="flow2.15" type="car" depart="135.00" departLane="best" departSpeed="max">
        <route edges="-1003269855#2 -1003269855#0 -181581824#1 -560562743 -1248871134 -1248871137 -310639256 -534092873 -261741010#6 -261741010#4 -261741010#3 -261741010#2 -261741010#1 -98331811 4059065#0 4059065#1 171948480 536435187#3 4818815 755621065 149399210#1 149399209#0 523772481 261750867 -261750863#0 -1157505352 -1157505351 -428036770#2 -428036770#1 -428036770#0 -428036774#1 -384971140#4 -384971140#3 -384971140#1 -384971140#0 86548565#1"/>
    </vehicle>
    <vehicle id="flow1.23" type="car" depart="138.00" departLane="best" departSpeed="max">
        <route edges="-1157505360 -1157505357 -184170266#0 184170266#0 184170266#1 1157505360 1157505367 1157505362 149723891 1157505365 158008428#1 342317279 261423864#0 261423864#1 261423862#0 261423862#2 422738802#0 422738802#1 422738802#2 422738802#4 539890287 422738800#1 519956415#1 1025860967#0 1025860967#1 171942531 519956418#1 503190615#0"/>
    </vehicle>
    <vehicle id="flow1.24" type="car" depart="144.00" departLane="best" departSpeed="max">
        <route edges="-1157505360 -1157505357 -184170266#0 184170266#0 184170266#1 1157505360 1157505367 1157505362 149723891 1157505365 158008428#1 342317279 261423864#0 261423864#1 261423862#0 261423862#2 422738802#0 422738802#1 422738802#2 422738802#4 539890287 422738800#1 519956415#1 1025860967#0 1025860967#1 171942531 519956418#1 503190615#0"/>
    </vehicle>
    <vehicle id="flow2.16" type="car" depart="144.00" departLane="best" departSpeed="max">
        <route edges="-1003269855#2 -1003269855#0 -181581824#1 -560562743 -1248871134 -1248871137 -310639256 -534092873 -261741010#6 -261741010#4 -261741010#3 -261741010#2 -261741010#1 -98331811 4059065#0 4059065#1 171948480 536435187#3 4818815 755621065 149399210#1 149399209#0 523772481 261750867 -261750863#0 -1157505352 -1157505351 -428036770#2 -428036770#1 -428036770#0 -428036774#1 -384971140#4 -384971140#3 -384971140#1 -384971140#0 86548565#1"/>
    </vehicle>
    <vehicle id="flow1.25" type="car" depart="150.00" departLane="best" departSpeed="max">
        <route edges="-1157505360 -1157505357 -184170266#0 184170266#0 184170266#1 1157505360 1157505367 1157505362 149723891 1157505365 158008428#1 342317279 261423864#0 261423864#1 261423862#0 261423862#2 422738802#0 422738802#1 422738802#2 422738802#4 539890287 422738800#1 519956415#1 1025860967#0 1025860967#1 171942531 519956418#1 503190615#0"/>
    </vehicle>
    <vehicle id="flow2.17" type="car" depart="153.00" departLane="best" departSpeed="max">
        <route edges="-1003269855#2 -1003269855#0 -181581824#1 -560562743 -1248871134 -1248871137 -310639256 -534092873 -261741010#6 -261741010#4 -261741010#3 -261741010#2 -261741010#1 -98331811 4059065#0 4059065#1 171948480 536435187#3 4818815 755621065 149399210#1 149399209#0 523772481 261750867 -261750863#0 -1157505352 -1157505351 -428036770#2 -428036770#1 -428036770#0 -428036774#1 -384971140#4 -384971140#3 -384971140#1 -384971140#0 86548565#1"/>
    </vehicle>
    <vehicle id="flow1.26" type="car" depart="156.00" departLane="best" departSpeed="max">
        <route edges="-1157505360 -1157505357 -184170266#0 184170266#0 184170266#1 1157505360 1157505367 1157505362 149723891 1157505365 158008428#1 342317279 261423864#0 261423864#1 261423862#0 261423862#2 422738802#0 422738802#1 422738802#2 422738802#4 539890287 422738800#1 519956415#1 1025860967#0 1025860967#1 171942531 519956418#1 503190615#0"/>
    </vehicle>
    <vehicle id="flow1.27" type="car" depart="162.00" departLane="best" departSpeed="max">
        <route edges="-1157505360 -1157505357 -184170266#0 184170266#0 184170266#1 1157505360 1157505367 1157505362 149723891 1157505365 158008428#1 342317279 261423864#0 261423864#1 261423862#0 261423862#2 422738802#0 422738802#1 422738802#2 422738802#4 539890287 422738800#1 519956415#1 1025860967#0 1025860967#1 171942531 519956418#1 503190615#0"/>
    </vehicle>
    <vehicle id="flow2.18" type="car" depart="162.00" departLane="best" departSpeed="max">
        <route edges="-1003269855#2 -1003269855#0 -181581824#1 -560562743 -1248871134 -1248871137 -310639256 -534092873 -261741010#6 -261741010#4 -261741010#3 -261741010#2 -261741010#1 -98331811 4059065#0 4059065#1 171948480 536435187#3 4818815 755621065 149399210#1 149399209#0 523772481 261750867 -261750863#0 -1157505352 -1157505351 -428036770#2 -428036770#1 -428036770#0 -428036774#1 -384971140#4 -384971140#3 -384971140#1 -384971140#0 86548565#1"/>
    </vehicle>
    <vehicle id="flow1.28" type="car" depart="168.00" departLane="best" departSpeed="max">
        <route edges="-1157505360 -1157505357 -184170266#0 184170266#0 184170266#1 1157505360 1157505367 1157505362 149723891 1157505365 158008428#1 342317279 261423864#0 261423864#1 261423862#0 261423862#2 422738802#0 422738802#1 422738802#2 422738802#4 539890287 422738800#1 519956415#1 1025860967#0 1025860967#1 171942531 519956418#1 503190615#0"/>
    </vehicle>
    <vehicle id="flow2.19" type="car" depart="171.00" departLane="best" departSpeed="max">
        <route edges="-1003269855#2 -1003269855#0 -181581824#1 -560562743 -1248871134 -1248871137 -310639256 -534092873 -261741010#6 -261741010#4 -261741010#3 -261741010#2 -261741010#1 -98331811 4059065#0 4059065#1 171948480 536435187#3 4818815 755621065 149399210#1 149399209#0 523772481 261750867 -261750863#0 -1157505352 -1157505351 -428036770#2 -428036770#1 -428036770#0 -428036774#1 -384971140#4 -384971140#3 -384971140#1 -384971140#0 86548565#1"/>
    </vehicle>
    <vehicle id="flow1.29" type="car" depart="174.00" departLane="best" departSpeed="max">
        <route edges="-1157505360 -1157505357 -184170266#0 184170266#0 184170266#1 1157505360 1157505367 1157505362 149723891 1157505365 158008428#1 342317279 261423864#0 261423864#1 261423862#0 261423862#2 422738802#0 422738802#1 422738802#2 422738802#4 539890287 422738800#1 519956415#1 1025860967#0 1025860967#1 171942531 519956418#1 503190615#0"/>
    </vehicle>
    <vehicle id="flow1.30" type="car" depart="180.00" departLane="best" departSpeed="max">
        <route edges="-1157505360 -1157505357 -184170266#0 184170266#0 184170266#1 1157505360 1157505367 1157505362 149723891 1157505365 158008428#1 342317279 261423864#0 261423864#1 261423862#0 261423862#2 422738802#0 422738802#1 422738802#2 422738802#4 539890287 422738800#1 519956415#1 1025860967#0 1025860967#1 171942531 519956418#1 503190615#0"/>
    </vehicle>
    <vehicle id="flow2.20" type="car" depart="180.00" departLane="best" departSpeed="max">
        <route edges="-1003269855#2 -1003269855#0 -181581824#1 -560562743 -1248871134 -1248871137 -310639256 -534092873 -261741010#6 -261741010#4 -261741010#3 -261741010#2 -261741010#1 -98331811 4059065#0 4059065#1 171948480 536435187#3 4818815 755621065 149399210#1 149399209#0 523772481 261750867 -261750863#0 -1157505352 -1157505351 -428036770#2 -428036770#1 -428036770#0 -428036774#1 -384971140#4 -384971140#3 -384971140#1 -384971140#0 86548565#1"/>
    </vehicle>
    <vehicle id="flow1.31" type="car" depart="186.00" departLane="best" departSpeed="max">
        <route edges="-1157505360 -1157505357 -184170266#0 184170266#0 184170266#1 1157505360 1157505367 1157505362 149723891 1157505365 158008428#1 342317279 261423864#0 261423864#1 261423862#0 261423862#2 422738802#0 422738802#1 422738802#2 422738802#4 539890287 422738800#1 519956415#1 1025860967#0 1025860967#1 171942531 519956418#1 503190615#0"/>
    </vehicle>
    <vehicle id="flow2.21" type="car" depart="189.00" departLane="best" departSpeed="max">
        <route edges="-1003269855#2 -1003269855#0 -181581824#1 -560562743 -1248871134 -1248871137 -310639256 -534092873 -261741010#6 -261741010#4 -261741010#3 -261741010#2 -261741010#1 -98331811 4059065#0 4059065#1 171948480 536435187#3 4818815 755621065 149399210#1 149399209#0 523772481 261750867 -261750863#0 -1157505352 -1157505351 -428036770#2 -428036770#1 -428036770#0 -428036774#1 -384971140#4 -384971140#3 -384971140#1 -384971140#0 86548565#1"/>
    </vehicle>
    <vehicle id="flow1.32" type="car" depart="192.00" departLane="best" departSpeed="max">
        <route edges="-1157505360 -1157505357 -184170266#0 184170266#0 184170266#1 1157505360 1157505367 1157505362 149723891 1157505365 158008428#1 342317279 261423864#0 261423864#1 261423862#0 261423862#2 422738802#0 422738802#1 422738802#2 422738802#4 539890287 422738800#1 519956415#1 1025860967#0 1025860967#1 171942531 519956418#1 503190615#0"/>
    </vehicle>
    <vehicle id="flow1.33" type="car" depart="198.00" departLane="best" departSpeed="max">
        <route edges="-1157505360 -1157505357 -184170266#0 184170266#0 184170266#1 1157505360 1157505367 1157505362 149723891 1157505365 158008428#1 342317279 261423864#0 261423864#1 261423862#0 261423862#2 422738802#0 422738802#1 422738802#2 422738802#4 539890287 422738800#1 519956415#1 1025860967#0 1025860967#1 171942531 519956418#1 503190615#0"/>
    </vehicle>
    <vehicle id="flow2.22" type="car" depart="198.00" departLane="best" departSpeed="max">
        <route edges="-1003269855#2 -1003269855#0 -181581824#1 -560562743 -1248871134 -1248871137 -310639256 -534092873 -261741010#6 -261741010#4 -261741010#3 -261741010#2 -261741010#1 -98331811 4059065#0 4059065#1 171948480 536435187#3 4818815 755621065 149399210#1 149399209#0 523772481 261750867 -261750863#0 -1157505352 -1157505351 -428036770#2 -428036770#1 -428036770#0 -428036774#1 -384971140#4 -384971140#3 -384971140#1 -384971140#0 86548565#1"/>
    </vehicle>
    <vehicle id="flow1.34" type="car" depart="204.00" departLane="best" departSpeed="max">
        <route edges="-1157505360 -1157505357 -184170266#0 184170266#0 184170266#1 1157505360 1157505367 1157505362 149723891 1157505365 158008428#1 342317279 261423864#0 261423864#1 261423862#0 261423862#2 422738802#0 422738802#1 422738802#2 422738802#4 539890287 422738800#1 519956415#1 1025860967#0 1025860967#1 171942531 519956418#1 503190615#0"/>
    </vehicle>
    <vehicle id="flow2.23" type="car" depart="207.00" departLane="best" departSpeed="max">