<?xml version="1.0" encoding="UTF-8"?>

<!-- generated on 2025-07-30 22:12:47.229365 by randomTrips.py v1_24_0+0000-b72eb3fabc8
<configuration>
    <net-file value="karlsruhe3_cleaned2.net.xml"/>
    <output-trip-file value="karlsruhe3_new.rou.xml"/>
    <prefix value="veh"/>
    <trip-attributes value="departLane=&quot;best&quot; departSpeed=&quot;max&quot; departPos=&quot;random&quot;"/>
    <fringe-factor value="10.0"/>
    <end value="1000.0"/>
</configuration>
-->

<routes xmlns:xsi="http://www.w3.org/2001/XMLSchema-instance" xsi:noNamespaceSchemaLocation="http://sumo.dlr.de/xsd/routes_file.xsd">
    <trip id="veh0" depart="0.00" from="-428036771#2" to="-415869887" departLane="best" departSpeed="max" departPos="random"/>
    <trip id="veh1" depart="1.00" from="376239877#0" to="326502793#2" departLane="best" departSpeed="max" departPos="random"/>
    <trip id="veh2" depart="2.00" from="56057361#0" to="-171946381" departLane="best" departSpeed="max" departPos="random"/>
    <trip id="veh3" depart="3.00" from="1135899069" to="-1157505362" departLane="best" departSpeed="max" departPos="random"/>
    <trip id="veh4" depart="4.00" from="-1157505358#1" to="-384971139" departLane="best" departSpeed="max" departPos="random"/>
    <trip id="veh5" depart="5.00" from="310639257#1" to="160951140" departLane="best" departSpeed="max" departPos="random"/>
    <trip id="veh6" depart="6.00" from="-36966884" to="261418601" departLane="best" departSpeed="max" departPos="random"/>
    <trip id="veh7" depart="7.00" from="428021295" to="-1056385642" departLane="best" departSpeed="max" departPos="random"/>
    <trip id="veh8" depart="8.00" from="422738802#2" to="3454808#0" departLane="best" departSpeed="max" departPos="random"/>
    <trip id="veh9" depart="9.00" from="-56057361#1" to="-3428809#6" departLane="best" departSpeed="max" departPos="random"/>
    <trip id="veh10" depart="10.00" from="477157310" to="261420059#1" departLane="best" departSpeed="max" departPos="random"/>
    <trip id="veh11" depart="11.00" from="422738802#3" to="362075987" departLane="best" departSpeed="max" departPos="random"/>
    <trip id="veh12" depart="12.00" from="-999241257#0" to="171946379" departLane="best" departSpeed="max" departPos="random"/>
    <trip id="veh13" depart="13.00" from="428036775#0" to="261564748#0" departLane="best" departSpeed="max" departPos="random"/>
    <trip id="veh14" depart="14.00" from="4818835#0" to="24581553" departLane="best" departSpeed="max" departPos="random"/>
    <trip id="veh15" depart="15.00" from="3527440#0" to="-1301927136#1" departLane="best" departSpeed="max" departPos="random"/>
    <trip id="veh16" depart="16.00" from="-376239875" to="-560562743" departLane="best" departSpeed="max" departPos="random"/>
    <trip id="veh17" depart="17.00" from="-159908039#2" to="-428021295" departLane="best" departSpeed="max" departPos="random"/>
    <trip id="veh18" depart="18.00" from="-160611126#5" to="-497870890" departLane="best" departSpeed="max" departPos="random"/>
    <trip id="veh19" depart="19.00" from="261750866" to="1082513142#2" departLane="best" departSpeed="max" departPos="random"/>
    <trip id="veh20" depart="20.00" from="-741042671#2" to="-4059055#0" departLane="best" departSpeed="max" departPos="random"/>
    <trip id="veh21" depart="21.00" from="-428021295" to="566409382#1" departLane="best" departSpeed="max" departPos="random"/>
    <trip id="veh22" depart="22.00" from="310639256" to="261423862#1" departLane="best" departSpeed="max" departPos="random"/>
    <trip id="veh23" depart="23.00" from="-326502793#4" to="362075987" departLane="best" departSpeed="max" departPos="random"/>
    <trip id="veh24" depart="24.00" from="90051672#1" to="266635496#1" departLane="best" departSpeed="max" departPos="random"/>
    <trip id="veh25" depart="25.00" from="4570906#1" to="4059030#1" departLane="best" departSpeed="max" departPos="random"/>
    <trip id="veh26" depart="26.00" from="-376239875" to="-1157505367" departLane="best" departSpeed="max" departPos="random"/>
    <trip id="veh27" depart="27.00" from="-362075987" to="601799190#1" departLane="best" departSpeed="max" departPos="random"/>
    <trip id="veh28" depart="28.00" from="503190615#2" to="-708234064" departLane="best" departSpeed="max" departPos="random"/>
    <trip id="veh29" depart="29.00" from="326502793#1" to="1157505367" departLane="best" departSpeed="max" departPos="random"/>
    <trip id="veh30" depart="30.00" from="601799190#1" to="150078330" departLane="best" departSpeed="max" departPos="random"/>
    <trip id="veh31" depart="31.00" from="-422738800#0" to="-428036774#0" departLane="best" departSpeed="max" departPos="random"/>
    <trip id="veh32" depart="32.00" from="261418596" to="477157312#1" departLane="best" departSpeed="max" departPos="random"/>
    <trip id="veh33" depart="33.00" from="1025860967#1" to="-415869887" departLane="best" departSpeed="max" departPos="random"/>
    <trip id="veh34" depart="34.00" from="-184170266#0" to="261741010#5" departLane="best" departSpeed="max" departPos="random"/>
    <trip id="veh35" depart="35.00" from="4211633" to="137962150#0" departLane="best" departSpeed="max" departPos="random"/>
    <trip id="veh36" depart="36.00" from="-154343753" to="1135899068" departLane="best" departSpeed="max" departPos="random"/>
    <trip id="veh37" depart="37.00" from="-1082513143#0" to="3577471#1" departLane="best" departSpeed="max" departPos="random"/>
    <trip id="veh38" depart="38.00" from="3454369#0" to="160803845#0" departLane="best" departSpeed="max" departPos="random"/>
    <trip id="veh39" depart="39.00" from="-428021295" to="266635496#2" departLane="best" departSpeed="max" departPos="random"/>
    <trip id="veh40" depart="40.00" from="-261418596" to="149399187#1" departLane="best" departSpeed="max" departPos="random"/>
    <trip id="veh41" depart="41.00" from="1307793411#1" to="689346039" departLane="best" departSpeed="max" departPos="random"/>
    <trip id="veh42" depart="42.00" from="503190615#2" to="-4818835#0" departLane="best" departSpeed="max" departPos="random"/>
    <trip id="veh43" depart="43.00" from="159895657" to="-362075988" departLane="best" departSpeed="max" departPos="random"/>
    <trip id="veh44" depart="44.00" from="601799187" to="428036775#2" departLane="best" departSpeed="max" departPos="random"/>
    <trip id="veh45" depart="45.00" from="-4295990#1" to="266635496#0" departLane="best" departSpeed="max" departPos="random"/>
    <trip id="veh46" depart="46.00" from="261423865#1" to="-3428809#4" departLane="best" departSpeed="max" departPos="random"/>
    <trip id="veh47" depart="47.00" from="4059033#3" to="160803845#2" departLane="best" departSpeed="max" departPos="random"/>
    <trip id="veh48" depart="48.00" from="415869887" to="160803838#0" departLane="best" departSpeed="max" departPos="random"/>
    <trip id="veh49" depart="49.00" from="-1003269855#0" to="-863412061" departLane="best" departSpeed="max" departPos="random"/>
    <trip id="veh50" depart="50.00" from="-1135899058" to="560562743" departLane="best" departSpeed="max" departPos="random"/>
    <trip id="veh51" depart="51.00" from="519956418#0" to="4212342" departLane="best" departSpeed="max" departPos="random"/>
    <trip id="veh52" depart="52.00" from="-4295992#1" to="-149723892#2" departLane="best" departSpeed="max" departPos="random"/>
    <trip id="veh53" depart="53.00" from="519956415#1" to="689346034" departLane="best" departSpeed="max" departPos="random"/>
    <trip id="veh54" depart="54.00" from="4059055#0" to="-261750866" departLane="best" departSpeed="max" departPos="random"/>
    <trip id="veh55" depart="55.00" from="149399201" to="171942531" departLane="best" departSpeed="max" departPos="random"/>
    <trip id="veh56" depart="56.00" from="-422738800#0" to="428036775#2" departLane="best" departSpeed="max" departPos="random"/>
    <trip id="veh57" depart="57.00" from="1157505351" to="-4059055#2" departLane="best" departSpeed="max" departPos="random"/>
    <trip id="veh58" depart="58.00" from="160803841" to="362075987" departLane="best" departSpeed="max" departPos="random"/>
    <trip id="veh59" depart="59.00" from="-3577472#0" to="-689346040" departLane="best" departSpeed="max" departPos="random"/>
    <trip id="veh60" depart="60.00" from="999241257#0" to="310639257#1" departLane="best" departSpeed="max" departPos="random"/>
    <trip id="veh61" depart="61.00" from="-261418601" to="-415869887" departLane="best" departSpeed="max" departPos="random"/>
    <trip id="veh62" depart="62.00" from="-56057361#1" to="261418601" departLane="best" departSpeed="max" departPos="random"/>
    <trip id="veh63" depart="63.00" from="-376239875" to="-415869887" departLane="best" departSpeed="max" departPos="random"/>
    <trip id="veh64" depart="64.00" from="-159234717#2" to="261741011#1" departLane="best" departSpeed="max" departPos="random"/>
    <trip id="veh65" depart="65.00" from="-376239875" to="4935799#0" departLane="best" departSpeed="max" departPos="random"/>
    <trip id="veh66" depart="66.00" from="-362075988" to="-3100654#0" departLane="best" departSpeed="max" departPos="random"/>
    <trip id="veh67" depart="67.00" from="741042671#1" to="181581824#2" departLane="best" departSpeed="max" departPos="random"/>
    <trip id="veh68" depart="68.00" from="149399184" to="4059033#1" departLane="best" departSpeed="max" departPos="random"/>
    <trip id="veh69" depart="69.00" from="422738802#3" to="-384971139" departLane="best" departSpeed="max" departPos="random"/>
    <trip id="veh70" depart="70.00" from="1157505351" to="151549312" departLane="best" departSpeed="max" departPos="random"/>
    <trip id="veh71" depart="71.00" from="86548565#0" to="-261420059#2" departLane="best" departSpeed="max" departPos="random"/>
    <trip id="veh72" depart="72.00" from="4818835#0" to="-428036774#2" departLane="best" departSpeed="max" departPos="random"/>
    <trip id="veh73" depart="73.00" from="-3527424#2" to="149723892#0" departLane="best" departSpeed="max" departPos="random"/>
    <trip id="veh74" depart="74.00" from="-4087296" to="536435187#0" departLane="best" departSpeed="max" departPos="random"/>
    <trip id="veh75" depart="75.00" from="1248871137" to="428036773" departLane="best" departSpeed="max" departPos="random"/>
    <trip id="veh76" depart="76.00" from="162058716#0" to="-137962150#0" departLane="best" departSpeed="max" departPos="random"/>
    <trip id="veh77" depart="77.00" from="999241257#4" to="422738801#0" departLane="best" departSpeed="max" departPos="random"/>
    <trip id="veh78" depart="78.00" from="477157311" to="-3527424#4" departLane="best" departSpeed="max" departPos="random"/>
    <trip id="veh79" depart="79.00" from="149723892#0" to="-4068427#1" departLane="best" departSpeed="max" departPos="random"/>
    <trip id="veh80" depart="80.00" from="1082513141" to="-158008428#0" departLane="best" departSpeed="max" departPos="random"/>
    <trip id="veh81" depart="81.00" from="-999241257#1" to="999241257#0" departLane="best" departSpeed="max" departPos="random"/>
    <trip id="veh82" depart="82.00" from="-422738800#1" to="4059033#1" departLane="best" departSpeed="max" departPos="random"/>
    <trip id="veh83" depart="83.00" from="1307918732" to="137962150#1" departLane="best" departSpeed="max" departPos="random"/>
    <trip id="veh84" depart="84.00" from="863412061" to="999241257#5" departLane="best" departSpeed="max" departPos="random"/>
    <trip id="veh85" depart="85.00" from="-310639257#1" to="-566409374#0" departLane="best" departSpeed="max" departPos="random"/>
    <trip id="veh86" depart="86.00" from="-154343753" to="261418601" departLane="best" departSpeed="max" departPos="random"/>
    <trip id="veh87" depart="87.00" from="159902718#0" to="428036770#0" departLane="best" departSpeed="max" departPos="random"/>
    <trip id="veh88" depart="88.00" from="-159908039#3" to="-376239874" departLane="best" departSpeed="max" departPos="random"/>
    <trip id="veh89" depart="89.00" from="261420059#0" to="326502793#0" departLane="best" departSpeed="max" departPos="random"/>
    <trip id="veh90" depart="90.00" from="-384971140#0" to="-261750866" departLane="best" departSpeed="max" departPos="random"/>
    <trip id="veh91" depart="91.00" from="560562742" to="-428036773" departLane="best" departSpeed="max" departPos="random"/>
    <trip id="veh92" depart="92.00" from="261420059#0" to="261564748#1" departLane="best" departSpeed="max" departPos="random"/>
    <trip id="veh93" depart="93.00" from="1135899061" to="261418601" departLane="best" departSpeed="max" departPos="random"/>
    <trip id="veh94" depart="94.00" from="-362075987" to="3527802#0" departLane="best" departSpeed="max" departPos="random"/>
    <trip id="veh95" depart="95.00" from="-384971140#3" to="1157505367" departLane="best" departSpeed="max" departPos="random"/>
    <trip id="veh96" depart="96.00" from="3454180#2" to="-566409374#0" departLane="best" departSpeed="max" departPos="random"/>
    <trip id="veh97" depart="97.00" from="-4818835#1" to="384971140#1" departLane="best" departSpeed="max" departPos="random"/>
    <trip id="veh98" depart="98.00" from="-159700888#0" to="150078330" departLane="best" departSpeed="max" departPos="random"/>
    <trip id="veh99" depart="99.00" from="999241257#3" to="999241257#5" departLane="best" departSpeed="max" departPos="random"/>
    <trip id="veh100" depart="100.00" from="-159700888#1" to="-4068427#1" departLane="best" departSpeed="max" departPos="random"/>
    <trip id="veh101" depart="101.00" from="-422738800#1" to="566409377#0" departLane="best" departSpeed="max" departPos="random"/>
    <trip id="veh102" depart="102.00" from="523772481" to="4295990#1" departLane="best" departSpeed="max" departPos="random"/>
    <trip id="veh103" depart="103.00" from="-741042671#2" to="-3454180#2" departLane="best" departSpeed="max" departPos="random"/>
    <trip id="veh104" depart="104.00" from="4295992#0" to="352645639#3" departLane="best" departSpeed="max" departPos="random"/>
    <trip id="veh105" depart="105.00" from="261564748#2" to="999241257#2" departLane="best" departSpeed="max" departPos="random"/>
    <trip id="veh106" depart="106.00" from="326502793#0" to="-1082513141" departLane="best" departSpeed="max" departPos="random"/>
    <trip id="veh107" depart="107.00" from="428036770#1" to="-566409374#0" departLane="best" departSpeed="max" departPos="random"/>
    <trip id="veh108" depart="108.00" from="3428809#2" to="566409385#0" departLane="best" departSpeed="max" departPos="random"/>
    <trip id="veh109" depart="109.00" from="-261423864#1" to="-261741010#5" departLane="best" departSpeed="max" departPos="random"/>
    <trip id="veh110" depart="110.00" from="-181581824#0" to="171946381" departLane="best" departSpeed="max" departPos="random"/>
    <trip id="veh111" depart="111.00" from="-428036771#0" to="261420059#2" departLane="best" departSpeed="max" departPos="random"/>
    <trip id="veh112" depart="112.00" from="3577471#0" to="-384971140#3" departLane="best" departSpeed="max" departPos="random"/>
    <trip id="veh113" depart="113.00" from="261750866" to="-4818835#0" departLane="best" departSpeed="max" departPos="random"/>
    <trip id="veh114" depart="114.00" from="149723895" to="4935799#0" departLane="best" departSpeed="max" departPos="random"/>
    <trip id="veh115" depart="115.00" from="1157505351" to="-4818835#4" departLane="best" departSpeed="max" departPos="random"/>
    <trip id="veh116" depart="116.00" from="-1025127002" to="3924806" departLane="best" departSpeed="max" departPos="random"/>
    <trip id="veh117" depart="117.00" from="384971139" to="171946379" departLane="best" departSpeed="max" departPos="random"/>
    <trip id="veh118" depart="118.00" from="1157505356" to="-1082513142#1" departLane="best" departSpeed="max" departPos="random"/>
    <trip id="veh119" depart="119.00" from="-159902717" to="450125391" departLane="best" departSpeed="max" departPos="random"/>
    <trip id="veh120" depart="120.00" from="566409374#1" to="160951140" departLane="best" departSpeed="max" departPos="random"/>
    <trip id="veh121" depart="121.00" from="4295992#1" to="261418601" departLane="best" departSpeed="max" departPos="random"/>
    <trip id="veh122" depart="122.00" from="-3100654#0" to="-261750866" departLane="best" departSpeed="max" departPos="random"/>
    <trip id="veh123" depart="123.00" from="-4295992#2" to="4818815" departLane="best" departSpeed="max" departPos="random"/>
    <trip id="veh124" depart="124.00" from="4211635#1" to="428036772#2" departLane="best" departSpeed="max" departPos="random"/>
    <trip id="veh125" depart="125.00" from="566409374#0" to="-4059055#1" departLane="best" departSpeed="max" departPos="random"/>
    <trip id="veh126" depart="126.00" from="-4087296" to="-261423862#3" departLane="best" departSpeed="max" departPos="random"/>
    <trip id="veh127" depart="127.00" from="4211383#0" to="450125396" departLane="best" departSpeed="max" departPos="random"/>
    <trip id="veh128" depart="128.00" from="1082513143#1" to="261564748#2" departLane="best" departSpeed="max" departPos="random"/>
    <trip id="veh129" depart="129.00" from="-310639257#1" to="560562743" departLane="best" departSpeed="max" departPos="random"/>
    <trip id="veh130" depart="130.00" from="4818835#3" to="86548565#1" departLane="best" departSpeed="max" departPos="random"/>
    <trip id="veh131" depart="131.00" from="428021296#1" to="4295992#1" departLane="best" departSpeed="max" departPos="random"/>
    <trip id="veh132" depart="132.00" from="-1157505357" to="362075987" departLane="best" departSpeed="max" departPos="random"/>
    <trip id="veh133" depart="133.00" from="-56057361#0" to="56057361#0" departLane="best" departSpeed="max" departPos="random"/>
    <trip id="veh134" depart="134.00" from="422738801#2" to="428036774#1" departLane="best" departSpeed="max" departPos="random"/>
    <trip id="veh135" depart="135.00" from="428021296#1" to="-4818835#0" departLane="best" departSpeed="max" departPos="random"/>
    <trip id="veh136" depart="136.00" from="4211633" to="-261423865#0" departLane="best" departSpeed="max" departPos="random"/>
    <trip id="veh137" depart="137.00" from="49931898#0" to="428036772#0" departLane="best" departSpeed="max" departPos="random"/>
    <trip id="veh138" depart="138.00" from="-376239875" to="4211384#1" departLane="best" departSpeed="max" departPos="random"/>
    <trip id="veh139" depart="139.00" from="137962150#0" to="-566409382#0" departLane="best" departSpeed="max" departPos="random"/>
    <trip id="veh140" depart="140.00" from="4211635#0" to="-4211635#0" departLane="best" departSpeed="max" departPos="random"/>
    <trip id="veh141" depart="141.00" from="-1157505356" to="-384971139" departLane="best" departSpeed="max" departPos="random"/>
    <trip id="veh142" depart="142.00" from="-534092873" to="428036774#2" departLane="best" departSpeed="max" departPos="random"/>
    <trip id="veh143" depart="143.00" from="86548565#0" to="160803843" departLane="best" departSpeed="max" departPos="random"/>
    <trip id="veh144" depart="144.00" from="753584090" to="-261741010#5" departLane="best" departSpeed="max" departPos="random"/>
    <trip id="veh145" depart="145.00" from="863412061" to="-4818835#0" departLane="best" departSpeed="max" departPos="random"/>
    <trip id="veh146" depart="146.00" from="-181581824#2" to="149399187#1" departLane="best" departSpeed="max" departPos="random"/>
    <trip id="veh147" depart="147.00" from="36894772#1" to="-68992847#1" departLane="best" departSpeed="max" departPos="random"/>
    <trip id="veh148" depart="148.00" from="-999241257#5" to="230765089#2" departLane="best" departSpeed="max" departPos="random"/>
    <trip id="veh149" depart="149.00" from="-4212342" to="3527424#4" departLane="best" departSpeed="max" departPos="random"/>
    <trip id="veh150" depart="150.00" from="-1003269855#1" to="536435187#2" departLane="best" departSpeed="max" departPos="random"/>
    <trip id="veh151" depart="151.00" from="160803840" to="3577471#0" departLane="best" departSpeed="max" departPos="random"/>
    <trip id="veh152" depart="152.00" from="3428809#3" to="-863412061" departLane="best" departSpeed="max" departPos="random"/>
    <trip id="veh153" depart="153.00" from="3577471#2" to="-566409374#0" departLane="best" departSpeed="max" departPos="random"/>
    <trip id="veh154" depart="154.00" from="-450125391" to="1276416952" departLane="best" departSpeed="max" departPos="random"/>
    <trip id="veh155" depart="155.00" from="1082513142#0" to="-566409374#0" departLane="best" departSpeed="max" departPos="random"/>
    <trip id="veh156" depart="156.00" from="-261423862#0" to="132833420#2" departLane="best" departSpeed="max" departPos="random"/>
    <trip id="veh157" depart="157.00" from="863412046" to="326502793#2" departLane="best" departSpeed="max" departPos="random"/>
    <trip id="veh158" depart="158.00" from="566409374#0" to="261423864#1" departLane="best" departSpeed="max" departPos="random"/>
    <trip id="veh159" depart="159.00" from="-4295990#1" to="162058716#1" departLane="best" departSpeed="max" departPos="random"/>
    <trip id="veh160" depart="160.00" from="-1003269855#0" to="-534092873" departLane="best" departSpeed="max" departPos="random"/>
    <trip id="veh161" depart="161.00" from="1157505358#0" to="260924071" departLane="best" departSpeed="max" departPos="random"/>
    <trip id="veh162" depart="162.00" from="326502793#0" to="150078330" departLane="best" departSpeed="max" departPos="random"/>
    <trip id="veh163" depart="163.00" from="1248871134" to="-4068427#1" departLane="best" departSpeed="max" departPos="random"/>
    <trip id="veh164" depart="164.00" from="4211635#1" to="-3527424#7" departLane="best" departSpeed="max" departPos="random"/>
    <trip id="veh165" depart="165.00" from="-160484291#3" to="160611126#1" departLane="best" departSpeed="max" departPos="random"/>
    <trip id="veh166" depart="166.00" from="428036770#2" to="384971140#0" departLane="best" departSpeed="max" departPos="random"/>
    <trip id="veh167" depart="167.00" from="3454368#0" to="-415869887" departLane="best" departSpeed="max" departPos="random"/>
    <trip id="veh168" depart="168.00" from="-3577471#3" to="-1157505356" departLane="best" departSpeed="max" departPos="random"/>
    <trip id="veh169" depart="169.00" from="-4059055#1" to="151549312" departLane="best" departSpeed="max" departPos="random"/>
    <trip id="veh170" depart="170.00" from="1133544952" to="261741011#0" departLane="best" departSpeed="max" departPos="random"/>
    <trip id="veh171" depart="171.00" from="159234717#0" to="-428036772#1" departLane="best" departSpeed="max" departPos="random"/>
    <trip id="veh172" depart="172.00" from="326502793#2" to="-1025860967#1" departLane="best" departSpeed="max" departPos="random"/>
    <trip id="veh173" depart="173.00" from="-181581824#0" to="149399187#0" departLane="best" departSpeed="max" departPos="random"/>
    <trip id="veh174" depart="174.00" from="-3428809#1" to="694375402" departLane="best" departSpeed="max" departPos="random"/>
    <trip id="veh175" depart="175.00" from="-4087296" to="428021297#0" departLane="best" departSpeed="max" departPos="random"/>
    <trip id="veh176" depart="176.00" from="132833420#0" to="4068427#2" departLane="best" departSpeed="max" departPos="random"/>
    <trip id="veh177" depart="177.00" from="3428809#6" to="999241257#3" departLane="best" departSpeed="max" departPos="random"/>
    <trip id="veh178" depart="178.00" from="261420059#1" to="689346035#2" departLane="best" departSpeed="max" departPos="random"/>
    <trip id="veh179" depart="179.00" from="560562743" to="261423863#0" departLane="best" departSpeed="max" departPos="random"/>
    <trip id="veh180" depart="180.00" from="428036775#1" to="162058716#1" departLane="best" departSpeed="max" departPos="random"/>
    <trip id="veh181" depart="181.00" from="566409374#0" to="36966883" departLane="best" departSpeed="max" departPos="random"/>
    <trip id="veh182" depart="182.00" from="-4068427#1" to="261750868" departLane="best" departSpeed="max" departPos="random"/>
    <trip id="veh183" depart="183.00" from="261750866" to="-4818835#2" departLane="best" departSpeed="max" departPos="random"/>
    <trip id="veh184" depart="184.00" from="-159908039#0" to="-519956418#1" departLane="best" departSpeed="max" departPos="random"/>
    <trip id="veh185" depart="185.00" from="-428036770#2" to="-741042671#1" departLane="best" departSpeed="max" departPos="random"/>
    <trip id="veh186" depart="186.00" from="160803843" to="-310639257#1" departLane="best" departSpeed="max" departPos="random"/>
    <trip id="veh187" depart="187.00" from="-376239875" to="3454368#0" departLane="best" departSpeed="max" departPos="random"/>
    <trip id="veh188" depart="188.00" from="3527440#0" to="-159700888#0" departLane="best" departSpeed="max" departPos="random"/>
    <trip id="veh189" depart="189.00" from="1082513143#2" to="160803846#2" departLane="best" departSpeed="max" departPos="random"/>
    <trip id="veh190" depart="190.00" from="1133544956" to="-4059030#1" departLane="best" departSpeed="max" departPos="random"/>
    <trip id="veh191" depart="191.00" from="1135899068" to="4935749" departLane="best" departSpeed="max" departPos="random"/>
    <trip id="veh192" depart="192.00" from="261418596" to="3454368#2" departLane="best" departSpeed="max" departPos="random"/>
    <trip id="veh193" depart="193.00" from="-999241257#2" to="-1025860967#1" departLane="best" departSpeed="max" departPos="random"/>
    <trip id="veh194" depart="194.00" from="-689346039" to="384971140#2" departLane="best" departSpeed="max" departPos="random"/>
    <trip id="veh195" depart="195.00" from="4818835#0" to="689346039" departLane="best" departSpeed="max" departPos="random"/>
    <trip id="veh196" depart="196.00" from="160803846#2" to="261420059#0" departLane="best" departSpeed="max" departPos="random"/>
    <trip id="veh197" depart="197.00" from="-36966884" to="-415869887" departLane="best" departSpeed="max" departPos="random"/>
    <trip id="veh198" depart="198.00" from="123095957" to="-1157505360" departLane="best" departSpeed="max" departPos="random"/>
    <trip id="veh199" depart="199.00" from="-56057361#1" to="326502793#4" departLane="best" departSpeed="max" departPos="random"/>
    <trip id="veh200" depart="200.00" from="1082513142#2" to="-3527424#3" departLane="best" departSpeed="max" departPos="random"/>
    <trip id="veh201" depart="201.00" from="149399184" to="-261750866" departLane="best" departSpeed="max" departPos="random"/>
    <trip id="veh202" depart="202.00" from="261741011#1" to="-1157505358#0" departLane="best" departSpeed="max" departPos="random"/>
    <trip id="veh203" depart="203.00" from="1003269855#1" to="179310598#4" departLane="best" departSpeed="max" departPos="random"/>
    <trip id="veh204" depart="204.00" from="-1157505358#1" to="3100643" departLane="best" departSpeed="max" departPos="random"/>
    <trip id="veh205" depart="205.00" from="-261423865#1" to="150078330" departLane="best" departSpeed="max" departPos="random"/>
    <trip id="veh206" depart="206.00" from="-137962150#1" to="1135899060" departLane="best" departSpeed="max" departPos="random"/>
    <trip id="veh207" depart="207.00" from="-362075987" to="-863412061" departLane="best" departSpeed="max" departPos="random"/>
    <trip id="veh208" depart="208.00" from="4059033#2" to="1135899060" departLane="best" departSpeed="max" departPos="random"/>
    <trip id="veh209" depart="209.00" from="384971140#3" to="4212342" departLane="best" departSpeed="max" departPos="random"/>
    <trip id="veh210" depart="210.00" from="-1135899058" to="160803845#2" departLane="best" departSpeed="max" departPos="random"/>
    <trip id="veh211" depart="211.00" from="999241257#4" to="-999241257#2" departLane="best" departSpeed="max" departPos="random"/>
    <trip id="veh212" depart="212.00" from="310639257#1" to="4059030#1" departLane="best" departSpeed="max" departPos="random"/>
    <trip id="veh213" depart="213.00" from="317552926" to="384971140#3" departLane="best" departSpeed="max" departPos="random"/>
    <trip id="veh214" depart="214.00" from="863412048" to="-384971139" departLane="best" departSpeed="max" departPos="random"/>
    <trip id="veh215" depart="215.00" from="-1157505351" to="-3428809#3" departLane="best" departSpeed="max" departPos="random"/>
    <trip id="veh216" depart="216.00" from="179310598#1" to="-415869887" departLane="best" departSpeed="max" departPos="random"/>
    <trip id="veh217" depart="217.00" from="-326502793#0" to="261422783" departLane="best" departSpeed="max" departPos="random"/>
    <trip id="veh218" depart="218.00" from="384971139" to="-261741010#4" departLane="best" departSpeed="max" departPos="random"/>
    <trip id="veh219" depart="219.00" from="428036771#0" to="741042671#1" departLane="best" departSpeed="max" departPos="random"/>
    <trip id="veh220" depart="220.00" from="-181581824#1" to="-1157505357" departLane="best" departSpeed="max" departPos="random"/>
    <trip id="veh221" depart="221.00" from="-4570906#1" to="326502793#2" departLane="best" departSpeed="max" departPos="random"/>
    <trip id="veh222" depart="222.00" from="863412061" to="1157505367" departLane="best" departSpeed="max" departPos="random"/>
    <trip id="veh223" depart="223.00" from="352645639#2" to="261741010#4" departLane="best" departSpeed="max" departPos="random"/>
    <trip id="veh224" depart="224.00" from="-160611606" to="4059030#1" departLane="best" departSpeed="max" departPos="random"/>
    <trip id="veh225" depart="225.00" from="477157312#1" to="261420055#1" departLane="best" departSpeed="max" departPos="random"/>
    <trip id="veh226" depart="226.00" from="-261418601" to="98331812" departLane="best" departSpeed="max" departPos="random"/>
    <trip id="veh227" depart="227.00" from="1157505357" to="1082513143#5" departLane="best" departSpeed="max" departPos="random"/>