<?xml version='1.0' encoding='UTF-8'?>
<!-- generated on 2025-07-30 14:19:14 by Eclipse SUMO netconvert Version 1.24.0
<netconvertConfiguration xmlns:xsi="http://www.w3.org/2001/XMLSchema-instance" xsi:noNamespaceSchemaLocation="http://sumo.dlr.de/xsd/netconvertConfiguration.xsd">

    <input>
        <osm-files value="map.osm"/>
    </input>

    <output>
        <output-file value="karlsruhe.net.xml"/>
    </output>

    <projection>
        <proj.utm value="true"/>
    </projection>

    <processing>
        <geometry.remove value="true"/>
        <roundabouts.guess value="true"/>
    </processing>

    <tls_building>
        <tls.discard-simple value="true"/>
        <tls.join value="true"/>
        <tls.guess-signals value="true"/>
    </tls_building>

    <ramp_guessing>
        <ramps.guess value="true"/>
    </ramp_guessing>

    <junctions>
        <no-internal-links value="true"/>
        <junctions.join value="true"/>
    </junctions>

</netconvertConfiguration>
-->
<net xmlns:xsi="http://www.w3.org/2001/XMLSchema-instance" version="1.20" junctionCornerDetail="5" limitTurnSpeed="5.50" xsi:noNamespaceSchemaLocation="http://sumo.dlr.de/xsd/net_file.xsd">

    <location netOffset="-454984.28,-5428306.14" convBoundary="0.00,0.00,1485.39,1895.74" origBoundary="8.355408,49.003492,8.444808,49.023125" projParameter="+proj=utm +zone=32 +ellps=WGS84 +datum=WGS84 +units=m +no_defs"/>

    <type id="highway.cycleway" priority="1" numLanes="1" speed="5.56" allow="bicycle" oneway="0" width="2.00"/>
    <type id="highway.footway" priority="1" numLanes="1" speed="2.78" allow="pedestrian" oneway="1" width="2.00"/>
    <type id="highway.living_street" priority="2" numLanes="1" speed="2.78" disallow="tram rail_urban rail rail_electric rail_fast ship container cable_car subway aircraft wheelchair scooter drone" oneway="0"/>
    <type id="highway.path" priority="1" numLanes="1" speed="5.56" allow="pedestrian bicycle" oneway="0" width="2.00"/>
    <type id="highway.pedestrian" priority="1" numLanes="1" speed="2.78" allow="pedestrian" oneway="1" width="2.00"/>
    <type id="highway.primary" priority="12" numLanes="2" speed="27.78" disallow="tram rail_urban rail rail_electric rail_fast ship container cable_car subway aircraft wheelchair scooter drone" oneway="0"/>
    <type id="highway.primary_link" priority="7" numLanes="1" speed="22.22" disallow="tram rail_urban rail rail_electric rail_fast ship container cable_car subway aircraft wheelchair scooter drone" oneway="0"/>
    <type id="highway.residential" priority="3" numLanes="1" speed="13.89" disallow="tram rail_urban rail rail_electric rail_fast ship container cable_car subway aircraft wheelchair scooter drone" oneway="0"/>
    <type id="highway.secondary" priority="11" numLanes="1" speed="27.78" disallow="tram rail_urban rail rail_electric rail_fast ship container cable_car subway aircraft wheelchair scooter drone" oneway="0"/>
    <type id="highway.service" priority="1" numLanes="1" speed="5.56" allow="pedestrian delivery bicycle" oneway="0"/>
    <type id="highway.steps" priority="1" numLanes="1" speed="1.39" allow="pedestrian" oneway="1" width="2.00"/>
    <type id="highway.tertiary" priority="10" numLanes="1" speed="22.22" disallow="tram rail_urban rail rail_electric rail_fast ship container cable_car subway aircraft wheelchair scooter drone" oneway="0"/>
    <type id="railway.tram" priority="17" numLanes="1" speed="13.89" allow="tram" oneway="1"/>

    <edge id="-1001201125#2" from="cluster_10197796314_12824860780_15503717" to="cluster_11040480586_12824860779_1729190241_6699011425_#6more" priority="1" type="highway.path" shape="148.53,563.77 148.19,558.23 148.12,557.29">
        <lane id="-1001201125#2_0" index="0" allow="pedestrian bicycle" speed="5.56" length="14.77" width="2.00" shape="147.25,559.16 147.19,558.29 147.12,557.37"/>
    </edge>
    <edge id="-1001201126#0" from="9458400240" to="1729190245" priority="1" type="highway.path">
        <lane id="-1001201126#0_0" index="0" allow="pedestrian bicycle" speed="5.56" length="39.92" width="2.00" shape="140.64,550.96 106.47,553.85"/>
    </edge>
    <edge id="-1003269855#0" from="cluster_3664415973_3664415974" to="cluster_1590912233_3664415976_5083348337_5083348350" priority="11" type="highway.secondary" shape="756.51,199.50 752.72,201.74">
        <lane id="-1003269855#0_0" index="0" disallow="tram rail_urban rail rail_electric rail_fast ship container cable_car subway aircraft wheelchair scooter drone" speed="13.89" length="11.90" shape="761.30,198.54 761.13,198.64"/>
    </edge>
    <edge id="-1003269855#2" from="cluster_1590912226_2911376263" to="cluster_3664415973_3664415974" priority="11" type="highway.secondary" shape="763.85,195.18 759.79,197.57">
        <lane id="-1003269855#2_0" index="0" disallow="tram rail_urban rail rail_electric rail_fast ship container cable_car subway aircraft wheelchair scooter drone" speed="13.89" length="11.53" shape="762.23,197.98 762.06,198.09"/>
    </edge>
    <edge id="-1012825279" from="9344233948" to="cluster_1637996283_21493228_3095823406_9348416264" priority="1" type="highway.path" shape="670.07,452.79 666.80,453.01 661.94,453.23">
        <lane id="-1012825279_0" index="0" allow="pedestrian bicycle" speed="5.56" length="10.88" width="2.00" shape="668.65,453.89 667.72,453.95"/>
    </edge>
    <edge id="-1025127002" from="6654965099" to="1719716246" priority="3" type="highway.residential" shape="1049.51,660.32 1021.06,645.77 1013.01,641.65">
        <lane id="-1025127002_0" index="0" disallow="tram rail_urban rail rail_electric rail_fast ship container cable_car subway aircraft wheelchair scooter drone" speed="8.33" length="41.00" width="2.75" shape="1047.55,660.86 1020.44,646.99 1018.49,646.00"/>
    </edge>
    <edge id="-1025860964" from="cluster_6564908993_9458270503" to="1216897572" priority="1" type="highway.service" shape="809.18,978.85 806.83,947.30 806.06,937.93">
        <lane id="-1025860964_0" index="0" allow="pedestrian delivery bicycle" speed="5.56" length="53.02" shape="807.39,976.48 805.23,947.42 804.68,940.62"/>
    </edge>
    <edge id="-1025860967#0" from="6415035411" to="1889144832" priority="11" type="highway.secondary">
        <lane id="-1025860967#0_0" index="0" disallow="tram rail_urban rail rail_electric rail_fast ship container cable_car subway aircraft wheelchair scooter drone" speed="13.89" length="5.94" shape="809.16,923.37 808.96,923.38"/>
    </edge>
    <edge id="-1025860967#1" from="cluster_1370150595_1719671849_21733409" to="6415035411" priority="11" type="highway.secondary" shape="828.52,920.38 810.88,921.72">
        <lane id="-1025860967#1_0" index="0" disallow="tram rail_urban rail rail_electric rail_fast ship container cable_car subway aircraft wheelchair scooter drone" speed="13.89" length="20.59" shape="821.12,922.55 813.52,923.12"/>
    </edge>
    <edge id="-1025865622" from="9458356155" to="4834206201" priority="1" type="highway.path" shape="287.72,654.80 286.88,619.13 286.95,608.27 268.51,598.14 267.72,590.90">
        <lane id="-1025865622_0" index="0" allow="pedestrian bicycle" speed="5.56" length="74.26" width="2.00" shape="286.61,650.06 285.88,619.14 285.95,608.86 268.60,599.33"/>
    </edge>
    <edge id="-1025865623#0" from="9458356155" to="9458356157" priority="1" type="highway.service">
        <lane id="-1025865623#0_0" index="0" allow="pedestrian delivery bicycle" speed="5.56" length="42.69" shape="284.41,656.58 247.75,658.54"/>
    </edge>
    <edge id="-1025865623#1" from="9458356158" to="9458356155" priority="1" type="highway.service">
        <lane id="-1025865623#1_0" index="0" allow="pedestrian delivery bicycle" speed="5.56" length="14.39" shape="302.18,655.61 291.40,656.20"/>
    </edge>
    <edge id="-1025865624" from="9458356157" to="9458356156" priority="1" type="highway.service">
        <lane id="-1025865624_0" index="0" allow="pedestrian delivery bicycle" speed="5.56" length="8.32" shape="242.64,658.83 241.63,658.89"/>
    </edge>
    <edge id="-1025866957" from="9458289313" to="9752270608" priority="1" type="highway.service" shape="429.36,544.46 426.65,553.40 424.18,560.80 421.74,594.90 409.83,701.92 398.43,700.28 397.75,704.77 395.72,721.74 393.57,739.96">
        <lane id="-1025866957_0" index="0" allow="pedestrian delivery bicycle" speed="5.56" length="210.50" shape="429.50,549.51 428.17,553.89 425.76,561.12 423.33,595.04 411.24,703.74 399.78,702.09 399.34,704.99 397.30,721.93 395.71,735.51"/>
    </edge>
    <edge id="-1064267223" from="9774383963" to="9774383969" priority="1" type="highway.service" shape="163.03,412.73 150.51,413.73 143.81,414.33">
        <lane id="-1064267223_0" index="0" allow="pedestrian delivery bicycle" speed="5.56" length="19.28" shape="163.15,414.32 150.64,415.32 148.72,415.49"/>
    </edge>
    <edge id="-1080966520" from="9907746394" to="cluster_14852026_1829038653_1829038658" priority="1" type="highway.service" shape="822.39,642.19 815.73,640.33 804.28,641.08 794.93,641.35">
        <lane id="-1080966520_0" index="0" allow="pedestrian delivery bicycle" speed="5.56" length="36.97" shape="821.96,643.73 815.56,641.94 804.35,642.67 801.70,642.75"/>
    </edge>
    <edge id="-1082513141" from="9920827893" to="9920827892" priority="3" type="highway.residential">
        <lane id="-1082513141_0" index="0" disallow="tram rail_urban rail rail_electric rail_fast ship container cable_car subway aircraft wheelchair scooter drone" speed="8.33" length="13.88" width="3.00" shape="642.97,768.69 653.78,769.96"/>
    </edge>
    <edge id="-1082513142#0" from="4935288121" to="9920827893" priority="3" type="highway.residential">
        <lane id="-1082513142#0_0" index="0" disallow="tram rail_urban rail rail_electric rail_fast ship container cable_car subway aircraft wheelchair scooter drone" speed="8.33" length="21.02" width="4.00" shape="623.16,765.85 640.05,767.84"/>
    </edge>
    <edge id="-1082513142#1" from="1719629453" to="4935288121" priority="3" type="highway.residential">
        <lane id="-1082513142#1_0" index="0" disallow="tram rail_urban rail rail_electric rail_fast ship container cable_car subway aircraft wheelchair scooter drone" speed="8.33" length="22.48" width="4.00" shape="600.76,763.21 618.19,765.27"/>
    </edge>
    <edge id="-1082513142#2" from="25948132" to="1719629453" priority="3" type="highway.residential">
        <lane id="-1082513142#2_0" index="0" disallow="tram rail_urban rail rail_electric rail_fast ship container cable_car subway aircraft wheelchair scooter drone" speed="8.33" length="75.91" width="4.00" shape="530.58,754.65 595.82,762.62"/>
    </edge>
    <edge id="-1082513143#0" from="cluster_14795415_4935287820" to="25948132" priority="3" type="highway.residential" shape="437.24,745.31 522.76,755.71">
        <lane id="-1082513143#0_0" index="0" disallow="tram rail_urban rail rail_electric rail_fast ship container cable_car subway aircraft wheelchair scooter drone" speed="8.33" length="90.25" width="3.15" shape="444.63,744.62 516.44,753.35"/>
    </edge>
    <edge id="-1082513143#1" from="9752270608" to="cluster_14795415_4935287820" priority="3" type="highway.residential" shape="393.57,739.96 437.24,745.31">
        <lane id="-1082513143#1_0" index="0" disallow="tram rail_urban rail rail_electric rail_fast ship container cable_car subway aircraft wheelchair scooter drone" speed="8.33" length="41.27" width="3.15" shape="398.41,738.97 426.07,742.35"/>
    </edge>
    <edge id="-1082513143#2" from="14795306" to="9752270608" priority="3" type="highway.residential">
        <lane id="-1082513143#2_0" index="0" disallow="tram rail_urban rail rail_electric rail_fast ship container cable_car subway aircraft wheelchair scooter drone" speed="8.33" length="18.36" width="3.15" shape="384.93,737.31 389.08,737.82"/>
    </edge>
    <edge id="-1082513143#3" from="2916197193" to="14795306" priority="3" type="highway.residential">
        <lane id="-1082513143#3_0" index="0" disallow="tram rail_urban rail rail_electric rail_fast ship container cable_car subway aircraft wheelchair scooter drone" speed="8.33" length="90.15" width="3.15" shape="291.00,723.57 369.62,735.28"/>
    </edge>
    <edge id="-1082513143#4" from="cluster_14795102_1943364485_1953476375_3663899287" to="2916197193" priority="3" type="highway.residential" shape="250.18,719.08 286.18,724.45">
        <lane id="-1082513143#4_0" index="0" disallow="tram rail_urban rail rail_electric rail_fast ship container cable_car subway aircraft wheelchair scooter drone" speed="8.33" length="47.08" width="3.15" shape="256.09,718.37 281.70,722.19"/>
    </edge>
    <edge id="-109764315#0" from="1255627137" to="cluster_14795415_4935287820" priority="1" type="highway.path" shape="410.35,781.25 413.10,777.03 417.43,771.87 424.76,760.96 429.38,751.64">
        <lane id="-109764315#0_0" index="0" allow="pedestrian bicycle" speed="5.56" length="40.06" width="2.00" shape="411.51,777.64 412.29,776.44 416.63,771.27 423.89,760.46 424.50,759.23"/>
    </edge>
    <edge id="-109764315#1" from="4935288137" to="1255627137" priority="1" type="highway.path" shape="397.90,807.29 399.85,798.96 401.41,793.56 403.79,787.95 410.35,781.25">
        <lane id="-109764315#1_0" index="0" allow="pedestrian bicycle" speed="5.56" length="29.65" width="2.00" shape="398.42,800.65 398.88,798.71 400.47,793.22 402.95,787.38 405.39,784.89"/>
    </edge>
    <edge id="-109764315#2" from="cluster_1255626309_14795308" to="4935288137" priority="1" type="highway.path" shape="393.21,820.57 394.58,815.57 395.88,811.57 397.90,807.29">
        <lane id="-109764315#2_0" index="0" allow="pedestrian bicycle" speed="5.56" length="18.72" width="2.00" shape="395.75,809.50 396.12,808.72"/>
    </edge>
    <edge id="-109764369#0" from="1255627137" to="1255626007" priority="1" type="highway.path" shape="410.35,781.25 405.97,777.90 401.93,772.69 398.67,766.87 395.26,758.29 392.62,753.81 385.14,746.56">
        <lane id="-109764369#0_0" index="0" allow="pedestrian bicycle" speed="5.56" length="43.63" width="2.00" shape="406.75,779.76 405.26,778.62 401.10,773.24 397.76,767.30 394.36,758.73 391.82,754.43 389.75,752.42"/>
    </edge>
    <edge id="-109764369#1" from="cluster_10184050447_10184050448_4935288128_4935288132" to="1255627137" priority="1" type="highway.path" shape="423.11,797.03 421.06,791.92 417.37,786.53 413.94,783.90 410.35,781.25">
        <lane id="-109764369#1_0" index="0" allow="pedestrian bicycle" speed="5.56" length="25.63" width="2.00" shape="422.18,797.40 420.18,792.40 416.64,787.22 414.35,785.47"/>
    </edge>
    <edge id="-109764369#3" from="1255627473" to="cluster_10184050447_10184050448_4935288128_4935288132" priority="1" type="highway.path" shape="433.44,816.24 429.72,811.45 426.33,804.80">
        <lane id="-109764369#3_0" index="0" allow="pedestrian bicycle" speed="5.56" length="18.15" width="2.00" shape="427.92,810.12 425.82,806.00"/>
    </edge>
    <edge id="-1114992657#1" from="10197796305" to="cluster_10197796307_10197796308" priority="1" type="highway.service" shape="109.41,649.77 113.59,652.03 136.71,654.79">
        <lane id="-1114992657#1_0" index="0" allow="pedestrian delivery bicycle" speed="5.56" length="31.11" shape="110.17,648.36 114.09,650.48 134.41,652.91"/>
    </edge>
    <edge id="-1114992659#0" from="cluster_10197796312_6316314277" to="10197796313" priority="1" type="highway.service" shape="144.52,589.29 130.55,589.90">
        <lane id="-1114992659#0_0" index="0" allow="pedestrian delivery bicycle" speed="5.56" length="17.47" shape="141.56,591.02 130.62,591.49"/>
    </edge>
    <edge id="-1133544956" from="cluster_10568487727_10568487728_10568487731_14795133_#10more" to="10568487725" priority="11" type="highway.secondary" shape="244.94,958.63 216.56,960.70">
        <lane id="-1133544956_0" index="0" disallow="tram rail_urban rail rail_electric rail_fast ship container cable_car subway aircraft wheelchair scooter drone" speed="13.89" length="41.87" shape="238.67,960.69 216.83,962.29" changeLeft="authority" changeRight="authority"/>
    </edge>
    <edge id="-1133544957" from="10568487725" to="cluster_10568487726_1719671870" priority="11" type="highway.secondary" shape="216.56,960.70 202.81,961.64">
        <lane id="-1133544957_0" index="0" disallow="tram rail_urban rail rail_electric rail_fast ship container cable_car subway aircraft wheelchair scooter drone" speed="13.89" length="21.33" shape="216.52,962.31 199.50,963.47"/>
    </edge>
    <edge id="-1153768563" from="1631840112" to="6519161565" priority="1" type="highway.path">
        <lane id="-1153768563_0" index="0" allow="pedestrian bicycle" speed="5.56" length="5.58" width="2.00" shape="107.08,976.13 109.17,975.97"/>
    </edge>
    <edge id="-1155406231" from="10744958528" to="10744958529" priority="1" type="highway.path">
        <lane id="-1155406231_0" index="0" allow="pedestrian bicycle" speed="5.56" length="18.20" width="2.00" shape="990.26,858.40 1005.85,859.59"/>
    </edge>
    <edge id="-1157505351" from="2673470718" to="10764510703" priority="12" type="highway.primary" shape="213.22,343.35 212.39,334.97 211.20,320.71">
        <lane id="-1157505351_0" index="0" disallow="pedestrian tram rail_urban rail rail_electric rail_fast ship container cable_car subway aircraft wheelchair scooter drone" speed="8.33" length="22.73" shape="211.24,339.58 210.80,335.12 209.94,324.83" changeLeft="authority" changeRight="authority"/>
        <param key="ref" value="L 605"/>
    </edge>
    <edge id="-1157505352" from="10764510704" to="2673470718" priority="12" type="highway.primary">
        <lane id="-1157505352_0" index="0" disallow="pedestrian tram rail_urban rail rail_electric rail_fast ship container cable_car subway aircraft wheelchair scooter drone" speed="8.33" length="10.39" shape="212.29,353.67 211.88,347.42" changeLeft="authority" changeRight="authority"/>
        <param key="ref" value="L 605"/>
    </edge>
    <edge id="-1157505357" from="10764539281" to="2071978690" priority="12" type="highway.primary" shape="245.17,766.16 243.61,745.06 242.98,736.25">
        <lane id="-1157505357_0" index="0" disallow="pedestrian tram rail_urban rail rail_electric rail_fast ship container cable_car subway aircraft wheelchair scooter drone" speed="8.33" length="29.99" shape="243.57,766.13 242.01,745.17 241.56,738.86" changeLeft="authority" changeRight="authority"/>
        <param key="ref" value="L 605"/>
    </edge>
    <edge id="-1157505358#0" from="31100648" to="10764539250" priority="12" type="highway.primary" shape="240.70,707.14 239.94,697.13 239.04,686.06">
        <lane id="-1157505358#0_0" index="0" disallow="pedestrian tram rail_urban rail rail_electric rail_fast ship container cable_car subway aircraft wheelchair scooter drone" speed="8.33" length="21.14" shape="238.91,704.71 238.34,697.25 237.44,686.19" changeLeft="authority" changeRight="authority"/>
        <param key="ref" value="L 605"/>
    </edge>
    <edge id="-1157505358#1" from="cluster_14795102_1943364485_1953476375_3663899287" to="31100648" priority="12" type="highway.primary" shape="241.54,718.73 240.70,707.14">
        <lane id="-1157505358#1_0" index="0" disallow="pedestrian tram rail_urban rail rail_electric rail_fast ship container cable_car subway aircraft wheelchair scooter drone" speed="8.33" length="13.83" shape="239.40,711.32 239.29,709.82" changeLeft="authority" changeRight="authority"/>
        <param key="ref" value="L 605"/>
    </edge>
    <edge id="-1157505360" from="cluster_1943364370_1943364382_25947869" to="10764539281" priority="12" type="highway.primary" shape="250.27,837.80 248.65,811.40 246.14,778.84 245.17,766.16">
        <lane id="-1157505360_0" index="0" disallow="pedestrian tram rail_urban rail rail_electric rail_fast ship container cable_car subway aircraft wheelchair scooter drone" speed="8.33" length="71.82" shape="248.24,830.79 247.06,811.51 244.54,778.97 243.59,766.43"/>
        <param key="ref" value="L 605"/>
    </edge>
    <edge id="-1157505362" from="1626739219" to="10764539291" priority="12" type="highway.primary">
        <lane id="-1157505362_0" index="0" disallow="pedestrian tram rail_urban rail rail_electric rail_fast ship container cable_car subway aircraft wheelchair scooter drone" speed="13.89" length="14.14" shape="253.93,888.22 253.14,878.23"/>
        <param key="ref" value="L 605"/>
    </edge>
    <edge id="-1157505367" from="10764539291" to="cluster_1943364370_1943364382_25947869" priority="12" type="highway.primary" shape="254.73,877.98 250.27,837.80">
        <lane id="-1157505367_0" index="0" disallow="pedestrian tram rail_urban rail rail_electric rail_fast ship container cable_car subway aircraft wheelchair scooter drone" speed="8.33" length="40.44" shape="253.12,878.04 249.49,845.26"/>
        <param key="ref" value="L 605"/>
    </edge>
    <edge id="-1158045379" from="10769720379" to="10769720383" priority="1" type="highway.path" shape="628.22,924.62 626.19,916.33 623.74,911.91 622.33,900.09 610.62,900.04">
        <lane id="-1158045379_0" index="0" allow="pedestrian bicycle" speed="5.56" length="37.20" width="2.00" shape="626.56,922.05 625.25,916.70 622.77,912.22 621.44,901.09 613.25,901.05"/>
    </edge>
    <edge id="-1158045380" from="1255626007" to="14795306" priority="1" type="highway.path" shape="385.14,746.56 379.38,741.37 375.35,737.73">
        <lane id="-1158045380_0" index="0" allow="pedestrian bicycle" speed="5.56" length="13.19" width="2.00" shape="382.79,745.79 381.97,745.05"/>
    </edge>
    <edge id="-1158045383" from="25947870" to="1255627473" priority="1" type="highway.path" shape="441.54,822.75 438.39,820.22 433.44,816.24">
        <lane id="-1158045383_0" index="0" allow="pedestrian bicycle" speed="5.56" length="10.39" width="2.00" shape="435.02,818.79 434.67,818.51"/>
    </edge>
    <edge id="-1166248177" from="10847496685" to="12106021310" priority="1" type="highway.path" shape="590.37,1012.65 593.51,1012.28 594.03,1022.34">
        <lane id="-1166248177_0" index="0" allow="pedestrian bicycle" speed="5.56" length="13.23" width="2.00" shape="590.25,1011.66 594.45,1011.16 594.78,1017.55"/>
    </edge>
    <edge id="-1189007521" from="cluster_11040480586_12824860779_1729190241_6699011425_#6more" to="9458400240" priority="1" type="highway.path" shape="143.63,549.64 141.88,549.82 141.24,549.91">
        <lane id="-1189007521_0" index="0" allow="pedestrian bicycle" speed="5.56" length="9.93" width="2.00" shape="143.53,550.58 143.34,550.61"/>
    </edge>
    <edge id="-1210111722#0" from="11210667092" to="11210667091" priority="1" type="highway.service">
        <lane id="-1210111722#0_0" index="0" allow="pedestrian delivery bicycle" speed="5.56" length="7.74" shape="186.15,956.08 186.16,956.28"/>
    </edge>
    <edge id="-1210111722#1" from="11210667096" to="11210667092" priority="1" type="highway.service" shape="181.81,928.86 184.02,945.90 184.49,955.10">
        <lane id="-1210111722#1_0" index="0" allow="pedestrian delivery bicycle" speed="5.56" length="26.40" shape="183.97,933.07 185.62,945.76 185.96,952.52"/>
    </edge>
    <edge id="-1210111722#2" from="11210667099" to="11210667096" priority="1" type="highway.service" shape="188.79,906.65 180.38,907.58 181.81,928.86">
        <lane id="-1210111722#2_0" index="0" allow="pedestrian delivery bicycle" speed="5.56" length="29.79" shape="184.57,908.73 182.08,909.00 183.09,924.00"/>
    </edge>
    <edge id="-1210111722#3" from="11210667105" to="11210667099" priority="1" type="highway.service">
        <lane id="-1210111722#3_0" index="0" allow="pedestrian delivery bicycle" speed="5.56" length="9.36" shape="195.64,907.57 193.90,907.75"/>
    </edge>
    <edge id="-1210111722#4" from="11210667107" to="11210667105" priority="1" type="highway.service">
        <lane id="-1210111722#4_0" index="0" allow="pedestrian delivery bicycle" speed="5.56" length="18.50" shape="214.06,905.59 200.60,907.05"/>
    </edge>
    <edge id="-1210111722#5" from="cluster_11210667094_2670393598" to="11210667107" priority="1" type="highway.service" shape="247.11,901.87 227.07,902.58 216.50,903.72">
        <lane id="-1210111722#5_0" index="0" allow="pedestrian delivery bicycle" speed="5.56" length="35.27" shape="244.53,903.56 227.19,904.17 219.04,905.05"/>
    </edge>
    <edge id="-1210111723#0" from="11210667102" to="11210667096" priority="1" type="highway.service">
        <lane id="-1210111723#0_0" index="0" allow="pedestrian delivery bicycle" speed="5.56" length="11.01" shape="173.29,927.68 176.98,927.49"/>
    </edge>
    <edge id="-1210111723#1" from="11210667098" to="11210667102" priority="1" type="highway.service">
        <lane id="-1210111723#1_0" index="0" allow="pedestrian delivery bicycle" speed="5.56" length="4.27" shape="166.48,928.00 168.31,927.92"/>
    </edge>
    <edge id="-1210111724#0" from="11210667103" to="11210667099" priority="1" type="highway.service">
        <lane id="-1210111724#0_0" index="0" allow="pedestrian delivery bicycle" speed="5.56" length="8.47" shape="190.27,900.74 190.29,901.65"/>
    </edge>
    <edge id="-1210111724#1" from="11210667100" to="11210667103" priority="1" type="highway.service">
        <lane id="-1210111724#1_0" index="0" allow="pedestrian delivery bicycle" speed="5.56" length="9.53" shape="190.00,891.50 190.14,895.68"/>
    </edge>
    <edge id="-1213473337" from="11242591025" to="11242591026" priority="1" type="highway.path">
        <lane id="-1213473337_0" index="0" allow="pedestrian bicycle" speed="5.56" length="7.00" width="2.00" shape="123.78,767.33 123.59,767.25"/>
    </edge>
    <edge id="-1220137296" from="cluster_14795804_55474925_6655074904_765746891_#1more" to="cluster_1681688402_1681688539_1701466006" priority="1" type="highway.cycleway" shape="1014.55,905.76 1029.10,903.64">
        <lane id="-1220137296_0" index="0" allow="bicycle" speed="5.56" length="23.90" width="2.00" shape="1023.03,903.52 1025.98,903.09"/>
    </edge>
    <edge id="-1231003605" from="1719690464" to="11416185840" priority="1" type="highway.service" shape="1154.56,850.82 1175.83,853.18 1183.05,864.52 1191.11,871.27 1201.45,876.74 1217.23,881.16 1227.48,880.73 1240.71,877.84 1249.32,874.08 1260.91,866.46 1267.44,866.01">
        <lane id="-1231003605_0" index="0" allow="pedestrian delivery bicycle" speed="5.56" length="127.04" shape="1158.15,849.61 1176.76,851.67 1184.27,863.45 1192.01,869.93 1202.05,875.25 1217.42,879.55 1227.27,879.14 1240.21,876.31 1248.56,872.66 1260.38,864.89 1267.33,864.41"/>
    </edge>
    <edge id="-1234248814#0" from="11455037603" to="11455037597" priority="1" type="highway.service" shape="735.97,587.49 736.09,590.75 725.05,621.81 722.85,628.92 719.48,638.66">
        <lane id="-1234248814#0_0" index="0" allow="pedestrian delivery bicycle" speed="5.56" length="53.98" shape="737.66,589.92 737.70,590.99 726.57,622.31 724.37,629.42 722.55,634.68"/>
    </edge>
    <edge id="-1234248814#1" from="11455037601" to="11455037603" priority="1" type="highway.service">
        <lane id="-1234248814#1_0" index="0" allow="pedestrian delivery bicycle" speed="5.56" length="15.66" shape="736.86,571.77 737.46,584.94"/>
    </edge>
    <edge id="-1234351125#1" from="cluster_1255626309_14795308" to="cluster_1943364370_1943364382_25947869" priority="3" type="highway.residential" shape="384.66,826.88 270.82,836.14 259.46,836.94">
        <lane id="-1234351125#1_0" index="0" disallow="tram rail_urban rail rail_electric rail_fast ship container cable_car subway aircraft wheelchair scooter drone" speed="8.33" length="139.35" width="3.00" shape="377.99,828.93 270.93,837.64 264.58,838.08"/>
    </edge>
    <edge id="-1234351189#0" from="6466834476" to="25947870" priority="3" type="highway.residential">
        <lane id="-1234351189#0_0" index="0" disallow="tram rail_urban rail rail_electric rail_fast ship container cable_car subway aircraft wheelchair scooter drone" speed="8.33" length="35.10" width="3.00" shape="471.85,821.80 448.61,823.68"/>
    </edge>
    <edge id="-1234351189#1" from="cluster_1719629507_25947872" to="6466834476" priority="3" type="highway.residential" shape="525.23,815.75 476.52,819.91">
        <lane id="-1234351189#1_0" index="0" disallow="tram rail_urban rail rail_electric rail_fast ship container cable_car subway aircraft wheelchair scooter drone" speed="8.33" length="49.06" width="3.00" shape="518.25,817.86 481.22,821.02"/>
    </edge>
    <edge id="-1234351298" from="25947870" to="cluster_14795415_4935287820" priority="3" type="highway.residential" shape="441.54,822.75 437.24,745.31">
        <lane id="-1234351298_0" index="0" disallow="tram rail_urban rail rail_electric rail_fast ship container cable_car subway aircraft wheelchair scooter drone" speed="8.33" length="75.30" width="2.65" shape="439.82,815.77 436.74,760.23"/>
    </edge>
    <edge id="-1241665230" from="11537097769" to="11210667100" priority="1" type="highway.path" shape="117.60,892.07 138.00,890.09 138.09,892.09 156.37,890.87 161.18,891.66 166.54,891.26 173.59,889.76 173.56,888.68 188.30,888.01 188.30,888.66">
        <lane id="-1241665230_0" index="0" allow="pedestrian bicycle" speed="5.56" length="74.14" width="2.00" shape="118.28,891.00 138.95,888.99 139.04,891.02 156.42,889.87 161.22,890.65 166.40,890.27 172.57,888.95 172.53,887.72 186.15,887.11"/>
    </edge>
    <edge id="-1244085587" from="11564357633" to="1051761437" priority="1" type="highway.service">
        <lane id="-1244085587_0" index="0" allow="pedestrian delivery bicycle" speed="5.56" length="25.94" shape="114.01,366.56 134.94,364.15"/>
    </edge>
    <edge id="-1248871134" from="3664415977" to="3664415978" priority="11" type="highway.secondary" shape="712.53,224.36 699.52,232.09 687.12,238.72">
        <lane id="-1248871134_0" index="0" disallow="tram rail_urban rail rail_electric rail_fast ship container cable_car subway aircraft wheelchair scooter drone" speed="8.33" length="29.20" shape="703.75,231.43 700.30,233.48 690.71,238.61" changeLeft="authority" changeRight="authority"/>
    </edge>