<?xml version="1.0" encoding="UTF-8"?>

<!-- generated on 2025-07-29 14:01:37.553277 by randomTrips.py v1_24_0+0000-b72eb3fabc8
<configuration>
    <net-file value="karlsruhe.net.xml"/>
    <output-trip-file value="karlsruhe.rou.xml"/>
    <route-file value="karlsruhe_flows.xml"/>
    <end value="1000.0"/>
</configuration>
-->

<!-- generated on 2025-07-29 14:01:37 by Eclipse SUMO duarouter Version 1.24.0
<duarouterConfiguration xmlns:xsi="http://www.w3.org/2001/XMLSchema-instance" xsi:noNamespaceSchemaLocation="http://sumo.dlr.de/xsd/duarouterConfiguration.xsd">

    <input>
        <net-file value="karlsruhe.net.xml"/>
        <route-files value="karlsruhe.rou.xml"/>
    </input>

    <output>
        <output-file value="karlsruhe_flows.xml"/>
        <alternatives-output value="NUL"/>
    </output>

    <time>
        <begin value="0"/>
        <end value="1000.0"/>
    </time>

    <report>
        <no-warnings value="true"/>
        <ignore-errors value="true"/>
        <no-step-log value="true"/>
    </report>

</duarouterConfiguration>
-->

<routes xmlns:xsi="http://www.w3.org/2001/XMLSchema-instance" xsi:noNamespaceSchemaLocation="http://sumo.dlr.de/xsd/routes_file.xsd">
    <vehicle id="0" depart="0.00">
        <route edges="261750867 160803841 149723896#0 523772484 149723895 261743231 1157505355 149723892#0 149723892#1 149723892#2 1157505356 1157505358#0 1157505358#1 184170266#0 184170266#1 1157505357 1157505360 1157505367 1157505362 149723891 1157505365 261423865#0 -1133544956"/>
    </vehicle>
    <vehicle id="1" depart="1.00">
        <route edges="-428036770#0 428036770#0 428036770#1 428036770#2 1157505351 1157505352 261750863#0 160803841 149723896#0 3527802#1 261741011#0 261741011#1 24581553 171948480 317552926 230765089#1 4570906#1 362075988 362075987 -362075987 -362075988"/>
    </vehicle>
    <vehicle id="2" depart="2.00">
        <route edges="36894772#3 230765089#1 755621065 149399210#0 149399210#1 532743662 149399209#0 523772484 149723895 261743231 1157505355 149723892#0 149723892#1 149723892#2 1157505356 1157505358#0 1157505358#1 184170266#0 184170266#1 1157505357 1157505360 1157505367 1157505362 149723891 1157505365 261423865#0 158008428#1 342317279"/>
    </vehicle>
    <vehicle id="3" depart="3.00">
        <route edges="1157505355 149723892#0 149723892#1 149723892#2 1157505356 1157505358#0 1157505358#1 -1157505358#1 -1157505358#0 -1157505356 -149723892#2 -149723892#1 -149723892#0 -1157505355 160803840 1157505353 160803847 160803845#0 523772481 261750865 261750867 -261750863#0 -1157505352"/>
    </vehicle>
    <vehicle id="4" depart="4.00">
        <route edges="-1133544957 -261423863#1 -261423863#0 56057361#0 56057361#1 -56057361#1 -56057361#0 261423863#0 261423863#1 1133544957 1133544956 158008428#1 342317279 261423864#0 261423864#1 261423862#0 261423862#2 422738802#0 422738802#1 422738802#2 422738802#4 539890287 422738800#0 422738800#1 519956415#1 1025860967#0 1025860967#1 171942531 519956418#0 519956418#1 503190615#0 503190615#1 3454368#2 -3454368#2"/>
    </vehicle>
    <vehicle id="5" depart="5.00">
        <route edges="3100654#0 3100654#1 3100654#2 -261423862#0 -261423864#1 -261423864#0 -342317279 -158008428#1 -261423865#0 -1157505365 -149723891 -1157505362 -1157505367 -1157505360 -1157505357 -184170266#1 -184170266#0 -1157505358#1 -1157505358#0 -1157505356 -149723892#2 -149723892#1 -149723892#0 -1157505355 160803840 1157505353 160803847 160803845#0 3527802#1 261741011#0 261741011#1 24581553 171948480 668571648#1 668571648#2 149399201 36966883 36966884 162058716#1 689346034 741042672 689346040 689346039 689346038 689346036 162058717"/>
    </vehicle>
    <vehicle id="6" depart="6.00">
        <route edges="-3577471#2 -3577471#1 -3577471#0 -428036775#0 -428036773 -159700888#2 428036770#0 428036770#1 428036770#2 1157505351 1157505352 261750863#0 160803841 149723896#0 3527802#1 261741011#0 261741011#1 24581553 171948480 317552926 -36894772#3 -36894772#2 -36894772#1 -36894772#0 -159234717#2 -159234717#1 -159234717#0 -3454180#2 -3454180#1 -3454180#0 -1307793411#0 -261420059#2 -261420059#1 -261420059#0 -137962150#2 90171086 1135899068 1135899069 1135899070 1304155014 179609886#0 179609886#1 261420055#0"/>
    </vehicle>
    <vehicle id="7" depart="7.00">
        <route edges="422738802#1 422738802#2 422738802#4 539890287 422738800#0 422738800#1 519956415#1 1025860967#0 1025860967#1 -1025860967#1 -1025860967#0"/>
    </vehicle>
    <vehicle id="8" depart="8.00">
        <route edges="422738801#3 -261423862#2 -261423862#0 -261423864#1 -261423864#0 -342317279 -158008428#1 -261423865#0 -1157505365 -149723891 -1157505362 -1157505367 -1157505360 -1157505357 -184170266#1 -184170266#0 -1157505358#1 -1157505358#0 -1157505356 -149723892#2 -149723892#1 -149723892#0 -1157505355 160803840 1157505353 160803847 160803845#0 3527802#1 261741011#0 261741011#1 4059064#0 4059064#1 4059064#2 98331811 261741010#0 261741010#1 261741010#2 261741010#3 261741010#4 261741010#5 261741010#6 534092873 310639256 1248871137 181581823 1248871134 560562743 560562742 181581824#0 1003269855#0 1003269855#2 3454808#0"/>
    </vehicle>
    <vehicle id="9" depart="9.00">
        <route edges="-689346039 -689346040 689346040 689346039 689346038 689346036 162058717 741042670 741042671#0 741042671#1 741042671#2 689346035#0 689346035#1 689346035#2 -534092873 -261741010#6 -261741010#5 -261741010#4 -261741010#3 -261741010#2 -261741010#1 -261741010#0 -98331811 4059065#0 4059065#1 171948480 536435187#3 4818815 98331812 755621065 149399210#0 149399210#1 532743662 149399209#0 523772481 261750865 261750867 -261750863#0 -1157505352 -1157505351 -428036770#2 -428036770#1 -428036770#0 -428036769 -261750866"/>
    </vehicle>
    <vehicle id="10" depart="10.00">
        <route edges="741042670 741042671#0 741042671#1 741042671#2 -741042671#2 -741042671#1 -741042671#0 -741042670 -162058717 -689346036 -689346038 -689346039 -689346040"/>
    </vehicle>
    <vehicle id="11" depart="11.00">
        <route edges="4570906#1 362075988 362075987 -362075987 -362075988 -4570906#1 755621065 149399210#0 149399210#1 532743662 149399209#0 523772484 149723895 261743231 1157505355 149723892#0 149723892#1 149723892#2 1157505356 1157505358#0 1157505358#1 184170266#0 184170266#1 1157505357 1157505360 1157505367 1157505362 149723891 1157505365 261423865#0 -1133544956 -1133544957 -261423863#1 -261423863#0 56057361#0 56057361#1 -56057361#1 -56057361#0 261423863#0"/>
    </vehicle>
    <vehicle id="12" depart="12.00">
        <route edges="422738802#0 422738802#1 422738802#2 422738802#4 539890287 422738800#0 422738800#1 519956415#1 1025860967#0 1025860967#1 -90051672#2 -90051672#1 -90051672#0 -4087296 261420059#1 261420059#2 1307793411#0 3454180#0 3454180#1 3454180#2 159234717#0 159234717#1 159234717#2 36894772#0 36894772#1 36894772#2 36894772#3 230765089#1 4570906#1 362075988 362075987"/>
    </vehicle>
    <vehicle id="13" depart="13.00">
        <route edges="1025127002 159902717 708234065 1304155014 179609886#0 179609886#1 261420055#0 261420055#1 450125401#0 450125401#1 137962150#2 261420059#0 261420059#1 261420059#2 1307793411#0 3454180#0 3454180#1 3454180#2 159234717#0 159234717#1 159234717#2 702188965 4211383#0 4211383#1 36966883 36966884 162058716#1 689346034 741042672 689346040 689346039 689346038 689346036 162058717 741042670 741042671#0 741042671#1 741042671#2 689346035#0 689346035#1 689346035#2 -534092873 -261741010#6 -261741010#5 -261741010#4 171964224#0"/>
    </vehicle>
    <vehicle id="14" depart="14.00">
        <route edges="428036773 428036775#0 3577471#0 3577471#1 3577471#2 3577471#3 160803838#0 3527802#1 261741011#0 261741011#1 4059064#0 4059064#1 4059064#2 98331811 261741010#0 261741010#1 261741010#2 261741010#3 261741010#4 261741010#5 261741010#6 534092873 310639256 1248871137 181581823 1248871134 560562743 560562742 181581824#0 1003269855#0 1003269855#2 3454808#0 3454808#1 261564748#0 261564748#1 261564748#2 261564748#3"/>
    </vehicle>
    <vehicle id="15" depart="15.00">
        <route edges="4818815 98331812 755621065 149399210#0 149399210#1 532743662 149399209#0 3527802#1 261741011#0 261741011#1 4059064#0 4059064#1 4059064#2 98331811 261741010#0 261741010#1 261741010#2 261741010#3 261741010#4 261741010#5 261741010#6 534092873 310639256 1248871137 181581823 1248871134 560562743 560562742 181581824#0 1003269855#0 1003269855#2 3454808#0 3454808#1 261564748#0 261564748#1 261564748#2 261564748#3 260924071"/>
    </vehicle>
    <vehicle id="16" depart="16.00">
        <route edges="3527424#2 3527424#3 3527424#4 3527424#5 3527424#6 4818835#2 4818835#3 184170266#0 184170266#1 1157505357 1157505360 1157505367 1157505362 149723891 1157505365 261423865#0 -261423865#0 -1157505365 -149723891 -1157505362 -1157505367"/>
    </vehicle>
    <vehicle id="17" depart="17.00">
        <route edges="-159234717#0 159234717#0 159234717#1 159234717#2 702188965 4211383#0 4211383#1 36966883 36966884 -36966884"/>
    </vehicle>
    <vehicle id="18" depart="18.00">
        <route edges="261750863#0 160803841 149723896#0 523772484 149723895 261743231 1157505355 149723892#0 149723892#1 149723892#2 1157505356 1157505358#0 1157505358#1 184170266#0 184170266#1 1157505357 1157505360 4295990#1 694375402 -999241257#3"/>
    </vehicle>
    <vehicle id="19" depart="19.00">
        <route edges="-999241257#3 -999241257#2 -999241257#1 -3527424#6 -3527424#5"/>
    </vehicle>
    <vehicle id="20" depart="20.00">
        <route edges="-422738800#0 -539890287 422738801#0 422738801#1 422738801#2 422738801#3 -261423862#2 -261423862#0 -261423864#1 -261423864#0 -342317279 -158008428#1 -261423865#0 -1157505365 -149723891 -1157505362 -1157505367 -1157505360 -1157505357 -184170266#1 -184170266#0 -1157505358#1 -1157505358#0 -1157505356 -149723892#2 -149723892#1 -149723892#0 -1157505355 160803840 1157505353 160803847 160803845#0 3527802#1 261741011#0 261741011#1 24581553 171948480 668571648#1 668571648#2 149399201 36966883 36966884 162058716#1 689346034"/>
    </vehicle>
    <vehicle id="21" depart="21.00">
        <route edges="3100643 -1234351125#1 1157505367 1157505362 149723891 1157505365 261423865#0 158008428#1 342317279 261423864#0 261423864#1"/>
    </vehicle>
    <vehicle id="22" depart="22.00">
        <route edges="-3100654#1 -3100654#0 1234351189#0 1234351189#1 -4295992#0 -1082513142#2 -1082513142#1 -1082513142#0 -1082513141 -3428809#6 -3428809#5 -3428809#4 3428809#4 3428809#5 3428809#6 1082513141"/>
    </vehicle>
    <vehicle id="23" depart="23.00">
        <route edges="90171086 1135899068 1135899069 1135899070 1304155014 179609886#0 179609886#1 261420055#0 261420055#1 450125401#0 450125401#1 137962150#2 261420059#0 261420059#1 261420059#2 1307793411#0 3454180#0 3454180#1 3454180#2 159234717#0 159234717#1 159234717#2 36894772#0 36894772#1 36894772#2 36894772#3 230765089#1 755621065 149399210#0 149399210#1 532743662 149399209#0 523772481 261750865 261750867"/>
    </vehicle>
    <vehicle id="24" depart="24.00">
        <route edges="179310598#0 179310598#2 179310598#3 179310598#4 179310598#5 352645639#3 477157312#0 477157312#1 477157311 477157310 477157309 49931898#0 49931898#1 261421751 1307793411#0 3428811 415869887 3428809#4"/>
    </vehicle>
    <vehicle id="25" depart="25.00">
        <route edges="450125401#1 90171086 1135899068 1135899069 1135899070 -708234065 -159902717 -1025127002 -708234064 1025127003 159902718#0 159902718#1 159902718#2 159902718#3 4059036"/>
    </vehicle>
    <vehicle id="26" depart="26.00">
        <route edges="-362075988 -4570906#1 755621065 149399210#0 149399210#1 532743662 149399209#0 523772484 149723895 261743231 1157505355 149723892#0 149723892#1 149723892#2 1157505356 1157505358#0 1157505358#1 -1157505358#1 -1157505358#0 -1157505356 -149723892#2 -149723892#1 -149723892#0 -1157505355"/>
    </vehicle>
    <vehicle id="27" depart="27.00">
        <route edges="-519956418#1 -519956418#0 -171942531 -1025860967#1 -1025860967#0 -519956415#1 -422738800#1 -422738800#0 -539890287 422738801#0 422738801#1 422738801#2 422738801#3 -261423862#2 -261423862#0 -261423864#1 -261423864#0 -342317279 -158008428#1 -261423865#0 -1157505365 -149723891 -1157505362 -1157505367 -1157505360 -1157505357 -184170266#1 -184170266#0 -1157505358#1 -1157505358#0 -1157505356 -149723892#2 -149723892#1 -149723892#0 -1157505355 160803840 1157505353 160803847 160803845#0 523772481 261750865 261750867 -261750863#0 -1157505352 -1157505351 -428036770#2 -428036770#1 -428036770#0 -428036769"/>
    </vehicle>
    <vehicle id="28" depart="28.00">
        <route edges="-3527424#4 -3527424#3 -3527424#2 -3527424#1 -3527424#0 3527424#0 3527424#1 3527424#2 3527424#3 3527424#4 3527424#5 3527424#6 4818835#2 4818835#3 -1157505358#1 -1157505358#0 -1157505356 -149723892#2 -149723892#1 -149723892#0 -1157505355 160803840 1157505353 160803847 160803845#0 3527802#1 261741011#0 261741011#1 24581553 171948480 668571648#1 668571648#2 149399201 36966883 36966884 162058716#1 689346034 741042672 689346040 689346039 689346038 689346036 162058717 741042670 741042671#0 741042671#1 741042671#2 689346035#0 689346035#1 689346035#2"/>
    </vehicle>
    <vehicle id="29" depart="29.00">
        <route edges="49931897 159234717#0 159234717#1 159234717#2 702188965 4211383#0 4211383#1 36966883 36966884 162058716#1 689346034 741042672 689346040 689346039 689346038 689346036 162058717 741042670 741042671#0 741042671#1 741042671#2 689346035#0 689346035#1 689346035#2 310639256 1248871137 181581823 1248871134 560562743 560562742 181581824#0 -181581824#0 -560562742 -560562743"/>
    </vehicle>
    <vehicle id="30" depart="30.00">
        <route edges="310639256 1248871137 181581823 1248871134 560562743 560562742 181581824#0 1003269855#0 1003269855#2 3454808#0 3454808#1 261564748#0 261564748#1 261564748#2 261564748#3 260924071 260924072 179310598#0 179310598#2 179310598#3 179310598#4 179310598#5 352645639#3 477157312#0 477157312#1 477157311 477157310 477157309 1119459060#0 1119459060#1"/>
    </vehicle>
    <vehicle id="31" depart="31.00">
        <route edges="566409377#1 -566409382#2 -566409382#1 -566409382#0 -4059037 1025127003 159902718#0 159902718#1 159902718#2 159902718#3 4059036 1119459060#0 1119459060#1 -4059030#1 -4059030#0 49931897 159234717#0 159234717#1 159234717#2 36894772#0 36894772#1 36894772#2 36894772#3 230765089#1 755621065 149399210#0 149399210#1 532743662 149399209#0 171947874#1 266635494 149399190 149399187#0 149399187#1"/>
    </vehicle>
    <vehicle id="32" depart="32.00">
        <route edges="-4211635#1 3454368#2 123095957 261420054#0 137962150#2 261420059#0 261420059#1 261420059#2 1307793411#0 3454180#0 3454180#1 3454180#2 159234717#0 159234717#1 159234717#2 36894772#0 36894772#1 36894772#2 36894772#3 230765089#1 755621065 149399210#0 149399210#1 532743662 149399209#0 523772481 261750865 261750867 -261750863#0 -1157505352 -1157505351 -428036770#2 -428036770#1 -428036770#0 -428036774#0 -384971140#4 -384971140#3"/>
    </vehicle>
    <vehicle id="33" depart="33.00">
        <route edges="179310598#4 179310598#5 352645639#3 477157312#0 477157312#1 477157311 477157310 477157309 49931898#0 49931898#1 261421751 1307793411#0 3428811 415869887 1276314567 326502793#0 326502793#1 326502793#2 326502793#3 326502793#4 1276314566 -422738800#1 -422738800#0"/>
    </vehicle>
    <vehicle id="34" depart="34.00">
        <route edges="261420050#1 1135899060 1135899061 -3454368#2 3454368#2 123095957 261420054#0 137962150#2 261420059#0 261420059#1 261420059#2 1307793411#0 3454180#0 3454180#1 3454180#2 159234717#0 159234717#1 159234717#2 36894772#0 36894772#1 36894772#2 36894772#3 230765089#1 755621065 149399210#0 149399210#1 532743662 149399209#0 523772484"/>
    </vehicle>
    <vehicle id="35" depart="35.00">
        <route edges="1082513143#4 -1157505358#1 -1157505358#0 -1157505356 -149723892#2 -149723892#1 -149723892#0 -1157505355 160803840 1157505353 160803847 160803845#0 523772481 261750865 261750867 -261750863#0 -1157505352 -1157505351 -428036770#2 3577472#1 3577472#2 428021295 -428021295 -3577472#2 -3577472#1"/>
    </vehicle>
    <vehicle id="36" depart="36.00">
        <route edges="-159908039#1 -159908039#0 -376239874 -376239877#1 -376239877#0 -159908038 154343753 -154343753 159908038 376239877#0 376239877#1 376239874 159908039#0 159908039#1 159908039#2 159908039#3 376239876 376239875 3533995 160031108#0 160031108#1 753584090 566409385#0 -261420056 -450125406 -450125391 1304155014 179609886#0 179609886#1 261420055#0 261420055#1 450125401#0 450125401#1 261420050#1 1135899060 1135899061 -3454368#2 -503190615#1 -503190615#0 -519956418#1 -519956418#0 -171942531 -1025860967#1 -1025860967#0 -519956415#1 -422738800#1 -422738800#0 -539890287 422738801#0 422738801#1 422738801#2 422738801#3 -261423862#2 -3100654#2 -3100654#1 -3100654#0 -68992847#1 -68992847#0 -1234351125#1"/>
    </vehicle>
    <vehicle id="37" depart="37.00">
        <route edges="-1307793411#0 1307793411#0 3428811 415869887 3428809#4 3428809#5 3428809#6 1082513141 1082513142#0 1082513142#1"/>
    </vehicle>
    <vehicle id="38" depart="38.00">
        <route edges="-1082513142#0 -1082513141 -3428809#6 -3428809#5 -3428809#4 3428809#4 3428809#5 3428809#6 1082513141 1082513142#0 1082513142#1 1082513142#2 1082513143#0 1082513143#1 1082513143#2 1082513143#3 1082513143#4 -1157505358#1 -1157505358#0 -1157505356 -149723892#2 -149723892#1 -149723892#0 -1157505355 160803840 1157505353 160803847 160803845#0 523772481 261750865 261750867 -261750863#0 -1157505352 -1157505351 -428036770#2 -428036770#1 -428036770#0 159700888#2 428036773 428036775#0 3577471#0 3577471#1"/>
    </vehicle>
    <vehicle id="39" depart="39.00">
        <route edges="3428809#4 3428809#5 3428809#6 1082513141 1082513142#0 1082513142#1 1082513142#2 1082513143#0 1082513143#1 1082513143#2 1082513143#3 1082513143#4 -1157505358#1 -1157505358#0 -1157505356 -149723892#2 -149723892#1 -149723892#0 -1157505355 160803840"/>
    </vehicle>
    <vehicle id="40" depart="40.00">
        <route edges="-422738800#0 -539890287 422738801#0 422738801#1 422738801#2 422738801#3 -261423862#2 -261423862#0 -261423864#1 -261423864#0 -342317279 -158008428#1 -261423865#0 -1157505365 -149723891 -1157505362 -1157505367 -1157505360 -1157505357 -184170266#1 -184170266#0 -1157505358#1 -1157505358#0 -1157505356 -149723892#2 -149723892#1 -149723892#0 -1157505355 160803840 1157505353 160803847 266635496#0 266635496#1 266635496#2 266635494"/>
    </vehicle>
    <vehicle id="41" depart="41.00">
        <route edges="-160611606 1306866780 428021296#0 428021296#1 -98331811 4059065#0 4059065#1 171948480 536435187#3 4818815 98331812 755621065 149399210#0 149399210#1 532743662 149399209#0 523772484 149723895 261743231 1157505355 149723892#0 149723892#1 149723892#2 1157505356 1157505358#0 1157505358#1 -1082513143#4 -1082513143#3 -1082513143#2 -1082513143#1 1234351298 1234351189#0 1234351189#1"/>
    </vehicle>
    <vehicle id="42" depart="42.00">
        <route edges="1301927136#1 -261423862#2 -261423862#0 -261423864#1 -261423864#0 -342317279 -158008428#1 -261423865#0 -1157505365 -149723891 -1157505362 -1157505367 4295990#1 694375402"/>
    </vehicle>
    <vehicle id="43" depart="43.00">
        <route edges="49931897 -3454180#2 -3454180#1 -3454180#0 3428811 415869887 1276314567 326502793#0 326502793#1 326502793#2 326502793#3 326502793#4 1276314566 -422738800#1"/>
    </vehicle>
    <vehicle id="44" depart="44.00">
        <route edges="159902718#0 159902718#1 159902718#2 159902718#3 4059036 49931898#0 49931898#1 261421751 1307793411#0 3428811 415869887 1276314567 326502793#0 326502793#1 326502793#2 326502793#3 326502793#4 1276314566 -1276314566 -326502793#4"/>
    </vehicle>
    <vehicle id="45" depart="45.00">
        <route edges="566409374#1 566409377#0 566409377#1 -566409382#2 -566409382#1 -566409382#0 -4059037 1025127003 159902718#0 159902718#1 159902718#2 159902718#3 4059036 1119459060#0 1119459060#1 -4059030#1 -4059030#0 49931897 159234717#0 159234717#1 159234717#2 702188965 4211383#0 4211383#1 -149399201 536435187#0 536435187#1 536435187#3 4818815"/>
    </vehicle>
    <vehicle id="46" depart="46.00">
        <route edges="261423865#0 -261423865#0 -1157505365 -149723891 -1157505362 -1157505367 -1157505360 -1157505357 -184170266#1 -184170266#0 -1157505358#1 -1157505358#0 -1157505356 -149723892#2 -149723892#1 -149723892#0 -1157505355 160803840 1157505353 160803847 160803845#0 3527802#1 261741011#0 261741011#1 4059064#0 4059064#1 4059064#2 98331811 261741010#0 261741010#1 261741010#2 261741010#3 261741010#4 261741010#5 261741010#6 534092873 -534092873 -261741010#6"/>
    </vehicle>
    <vehicle id="47" depart="47.00">
        <route edges="-1003269855#0 1003269855#0 1003269855#2 3454808#0 3454808#1 261564748#0 261564748#1 261564748#2 261564748#3 260924071 260924072 179310598#0 179310598#2 179310598#3 179310598#4 179310598#5 352645639#3 477157312#0 477157312#1 477157311 477157310 477157309 49931898#0 49931898#1 261421751 -261420059#2 -261420059#1 -261420059#0 -137962150#2 90171086 1135899068 1135899069 1135899070 -708234065 -159902717 -1025127002 -708234064 4059037 566409382#0 566409382#1 566409382#2 -566409377#1"/>
    </vehicle>
    <vehicle id="48" depart="48.00">
        <route edges="-1082513143#2 -1082513143#1 1082513143#1 1082513143#2 1082513143#3 1082513143#4 -1157505358#1 -1157505358#0 -1157505356 -149723892#2 -149723892#1 -149723892#0 -1157505355 160803840 1157505353 160803847 160803845#0 3527802#1 261741011#0 261741011#1 24581553 171948480 668571648#1 668571648#2 149399201 36966883 36966884 4059033#2 4059033#3 601799190#0 601799190#1 601799187"/>
    </vehicle>
    <vehicle id="49" depart="49.00">
        <route edges="49931898#1 261421751 1307793411#0 3454180#0 3454180#1 3454180#2 159234717#0 159234717#1 159234717#2 36894772#0 36894772#1 36894772#2 36894772#3 230765089#1 755621065 149399210#0 149399210#1 532743662 149399209#0 523772481 261750865 261750867 -261750863#0 -1157505352 -1157505351 -428036770#2 -428036770#1 -428036770#0 428036770#0 428036770#1"/>
    </vehicle>
    <vehicle id="50" depart="50.00">
        <route edges="49931898#0 49931898#1 261421751 1307793411#0 3454180#0 3454180#1 3454180#2 159234717#0 159234717#1 159234717#2 702188965 4211383#0 4211383#1 36966883 36966884 162058716#1 689346034 741042672 689346040 689346039"/>
    </vehicle>
    <vehicle id="51" depart="51.00">
        <route edges="-159902717 -1025127002 -708234064 708234064 1025127002 159902717 708234065 450125391 450125406 261420056 151549312"/>
    </vehicle>
    <vehicle id="52" depart="52.00">
        <route edges="4059030#0 4059030#1 -4059030#1 -4059030#0 49931897 -3454180#2 -3454180#1 -3454180#0 -1307793411#0 -261420059#2"/>
    </vehicle>
    <vehicle id="53" depart="53.00">
        <route edges="149399210#0 149399210#1 532743662 149399209#0 171947874#1"/>
    </vehicle>
    <vehicle id="54" depart="54.00">
        <route edges="-4212342 -1248871134 -181581823 -1248871137 -310639256 -534092873 -261741010#6 -261741010#5 -261741010#4 -261741010#3 -261741010#2 -261741010#1 -261741010#0 -98331811 4059065#0 4059065#1 171948480 536435187#3 4818815 98331812 755621065 149399210#0 149399210#1 532743662 149399209#0 523772484 149723895 261743231 1157505355 149723892#0 149723892#1 149723892#2 1157505356 1157505358#0 1157505358#1 -4818835#3 -4818835#2 -4818835#1 4818835#1"/>
    </vehicle>
    <vehicle id="55" depart="55.00">
        <route edges="1157505356 1157505358#0 1157505358#1 -1157505358#1 -1157505358#0 -1157505356 -149723892#2 -149723892#1 -149723892#0 -1157505355 160803840 1157505353 160803847 160803845#0 523772481 261750865 261750867 -261750863#0 -1157505352 -1157505351 -428036770#2 -428036770#1 -428036770#0 159700888#2 428036773 428036775#0 3577471#0 3577471#1 3577471#2 3577471#3 -3577471#3 -3577471#2 -3577471#1 -3577471#0"/>
    </vehicle>
    <vehicle id="56" depart="56.00">
        <route edges="160803841 149723896#0 3527802#1 261741011#0 261741011#1 24581553 171948480 317552926 230765089#1 4570906#1 362075988 362075987"/>
    </vehicle>
    <vehicle id="57" depart="57.00">
        <route edges="-3454180#2 -3454180#1 -3454180#0 3428811 415869887 1276314567 326502793#0 326502793#1 326502793#2 326502793#3 326502793#4 1276314566 -422738800#1 -422738800#0 -539890287"/>
    </vehicle>
    <vehicle id="58" depart="58.00">
        <route edges="999241257#2 999241257#3 -999241257#3 -999241257#2 -999241257#1 4818835#2 4818835#3 -1082513143#4 -1082513143#3 -1082513143#2 -1082513143#1 1234351298 3100654#0"/>
    </vehicle>
    <vehicle id="59" depart="59.00">
        <route edges="-184170266#0 -1157505358#1 -1157505358#0 -1157505356 -149723892#2 -149723892#1 -149723892#0 -1157505355 160803840 1157505353 160803847 160803845#0 3527802#1 261741011#0 261741011#1 24581553 171948480 317552926 -36894772#3 -36894772#2 -36894772#1 -36894772#0"/>
    </vehicle>
    <vehicle id="60" depart="60.00">
        <route edges="-689346036 -689346038 -689346039 -689346040 689346040 689346039 689346038 689346036 162058717 741042670 741042671#0 741042671#1 741042671#2 689346035#0 689346035#1 689346035#2 310639256 1248871137 181581823 1248871134 560562743 560562742 181581824#0 1003269855#0 1003269855#2 3454808#0 3454808#1 261564748#0 261564748#1 261564748#2 261564748#3 260924071 260924072 179310598#0 179310598#2 179310598#3 179310598#4 179310598#5 352645639#3 477157312#0 477157312#1 477157311 477157310 477157309 49931898#0 49931898#1 261421751 -261420059#2 -261420059#1 -261420059#0 -137962150#2 90171086 1135899068 1135899069 1135899070 1304155014 179609886#0 179609886#1 261420055#0"/>
    </vehicle>
    <vehicle id="61" depart="61.00">
        <route edges="-36894772#0 36894772#0 36894772#1 36894772#2 36894772#3 230765089#1 755621065 149399210#0 149399210#1 532743662 149399209#0 523772481 261750865 261750867 -261750863#0 -1157505352 -1157505351 -428036770#2 3577472#1 3577472#2 428021295 -428021295 -3577472#2"/>
    </vehicle>
    <vehicle id="62" depart="62.00">
        <route edges="-149723892#0 -1157505355 160803840 1157505353 160803847 160803845#0 3527802#1 261741011#0"/>
    </vehicle>
    <vehicle id="63" depart="63.00">
        <route edges="-362075988 -4570906#1 755621065 149399210#0 149399210#1 532743662 149399209#0 3527802#1 261741011#0 261741011#1 24581553 171948480 668571648#1 668571648#2 536435187#0 536435187#1"/>
    </vehicle>
    <vehicle id="64" depart="64.00">
        <route edges="477157312#0 477157312#1 477157311 477157310 477157309 49931898#0 49931898#1 261421751 1307793411#0 3428811 415869887 3428809#4 3428809#5 3428809#6 1082513141 1082513142#0 1082513142#1 1082513142#2 1082513143#0 1082513143#1 1082513143#2 1082513143#3 1082513143#4 -1157505358#1 -1157505358#0 -1157505356 -149723892#2 -149723892#1 -149723892#0"/>
    </vehicle>
    <vehicle id="65" depart="65.00">
        <route edges="-36966884 -36966883 36966883 36966884 4059033#2 4059033#3 601799190#0 601799190#1 601799187 49931897 -3454180#2 -3454180#1 -3454180#0 3428811 415869887 1276314567 326502793#0 326502793#1"/>
    </vehicle>
    <vehicle id="66" depart="66.00">
        <route edges="-3527424#6 -3527424#5 -3527424#4 -3527424#3 -3527424#2 -3527424#1 -3527424#0 3527424#0 3527424#1 3527424#2 3527424#3 3527424#4 3527424#5 3527424#6 4818835#2 4818835#3 184170266#0 184170266#1 1157505357 1157505360 1157505367 1157505362 149723891 1157505365 261423865#0 -1133544956 -1133544957 -261423863#1 -261423863#0"/>
    </vehicle>
    <vehicle id="67" depart="67.00">
        <route edges="689346035#1 689346035#2 -534092873 -261741010#6 -261741010#5 -261741010#4 -261741010#3 -261741010#2 -261741010#1 -261741010#0 -98331811 4059065#0 4059065#1 171948480 536435187#3 4818815 98331812 755621065 149399210#0 149399210#1 532743662 149399209#0 523772484 149723895 261743231 1157505355 149723892#0 149723892#1 149723892#2 1157505356 1157505358#0 1157505358#1 184170266#0"/>
    </vehicle>
    <vehicle id="68" depart="68.00">
        <route edges="149399206#1 -98331811 4059065#0 4059065#1 171948480 536435187#3 4818815 98331812 755621065 149399210#0 149399210#1 532743662 149399209#0 3527802#1 261741011#0 261741011#1 4059064#0 4059064#1 4059064#2"/>
    </vehicle>
    <vehicle id="69" depart="69.00">
        <route edges="422738802#0 422738802#1 422738802#2 422738802#4 539890287 422738800#0 422738800#1 -422738800#1 -422738800#0 -539890287 422738801#0 422738801#1 422738801#2 422738801#3 -1301927136#1 -1301927136#0 -4295992#2 -4295992#0 -1082513142#2 -1082513142#1 -1082513142#0 -1082513141 -3428809#6 -3428809#5"/>
    </vehicle>
    <vehicle id="70" depart="70.00">
        <route edges="1157505356 1157505358#0 1157505358#1 -1157505358#1 -1157505358#0 -1157505356 -149723892#2 -149723892#1 -149723892#0 -1157505355 160803840 1157505353 160803847 160803845#0 3527802#1 261741011#0 261741011#1 24581553 171948480 149399206#0 149399206#1"/>
    </vehicle>
    <vehicle id="71" depart="71.00">
        <route edges="362075988 362075987 -362075987 -362075988 -4570906#1 755621065 149399210#0 149399210#1 532743662 149399209#0 523772484 149723895 261743231 1157505355 149723892#0 149723892#1 149723892#2 1157505356 1157505358#0 1157505358#1 -1082513143#4 -1082513143#3 -1082513143#2 -1082513143#1 -1082513143#0 -1082513142#2 -1082513142#1 -1082513142#0 -1082513141 -3428809#6 -3428809#5 -3428809#4 1276314567 326502793#0 326502793#1 326502793#2 326502793#3"/>
    </vehicle>
    <vehicle id="72" depart="72.00">
        <route edges="1119459060#1 -4059030#1 -4059030#0 49931897 -3454180#2 -3454180#1 -3454180#0 3428811 415869887 3428809#4 3428809#5 3428809#6 1082513141 1082513142#0 1082513142#1 1082513142#2 4295992#0 -1234351189#1 -1234351189#0 -68992847#1"/>
    </vehicle>
    <vehicle id="73" depart="73.00">
        <route edges="4818815 98331812 755621065 149399210#0 149399210#1 532743662 149399209#0 523772481 261750865 261750867 -261750863#0 -1157505352 -1157505351 -428036770#2 -428036770#1 -428036770#0 -428036774#0 -384971140#4"/>
    </vehicle>
    <vehicle id="74" depart="74.00">