<?xml version="1.0" encoding="UTF-8"?>

<!-- generated on 2025-08-05 19:39:36.964593 by randomTrips.py v1_24_0+0000-b72eb3fabc8
<configuration>
    <net-file value="map.net.xml"/>
    <output-trip-file value="map.trips.xml"/>
    <trip-attributes value="departLane=&quot;best&quot; departSpeed=&quot;max&quot; departPos=&quot;random&quot;"/>
    <fringe-factor value="5.0"/>
    <seed value="123"/>
    <end value="500.0"/>
    <period value="1.0"/>
</configuration>
-->

<routes xmlns:xsi="http://www.w3.org/2001/XMLSchema-instance" xsi:noNamespaceSchemaLocation="http://sumo.dlr.de/xsd/routes_file.xsd">
    <trip id="0" depart="0.00" from="1082513142#0" to="-261420059#0" departLane="best" departSpeed="max" departPos="random"/>
    <trip id="1" depart="1.00" from="566409374#0" to="-1157505362" departLane="best" departSpeed="max" departPos="random"/>
    <trip id="2" depart="2.00" from="4818835#0" to="-326502793#2" departLane="best" departSpeed="max" departPos="random"/>
    <trip id="3" depart="3.00" from="-56057361#1" to="-863412061" departLane="best" departSpeed="max" departPos="random"/>
    <trip id="4" depart="4.00" from="261423864#0" to="-159234717#0" departLane="best" departSpeed="max" departPos="random"/>
    <trip id="5" depart="5.00" from="-261423864#1" to="4059065#0" departLane="best" departSpeed="max" departPos="random"/>
    <trip id="6" depart="6.00" from="-1082513143#3" to="523772484" departLane="best" departSpeed="max" departPos="random"/>
    <trip id="7" depart="7.00" from="230765089#1" to="-428036774#1" departLane="best" departSpeed="max" departPos="random"/>
    <trip id="8" depart="8.00" from="-56057361#1" to="4211384#1" departLane="best" departSpeed="max" departPos="random"/>
    <trip id="9" depart="9.00" from="4059036" to="160031108#0" departLane="best" departSpeed="max" departPos="random"/>
    <trip id="10" depart="10.00" from="3454369#0" to="3100654#0" departLane="best" departSpeed="max" departPos="random"/>
    <trip id="11" depart="11.00" from="3428809#4" to="4818835#2" departLane="best" departSpeed="max" departPos="random"/>
    <trip id="12" depart="12.00" from="149399210#1" to="326502793#1" departLane="best" departSpeed="max" departPos="random"/>
    <trip id="13" depart="13.00" from="384971140#4" to="-3454368#2" departLane="best" departSpeed="max" departPos="random"/>
    <trip id="14" depart="14.00" from="428021297#1" to="534092873" departLane="best" departSpeed="max" departPos="random"/>
    <trip id="15" depart="15.00" from="342317279" to="-3428809#3" departLane="best" departSpeed="max" departPos="random"/>
    <trip id="16" depart="16.00" from="-560562743" to="1119459060#1" departLane="best" departSpeed="max" departPos="random"/>
    <trip id="17" depart="17.00" from="-154343753" to="149399210#1" departLane="best" departSpeed="max" departPos="random"/>
    <trip id="18" depart="18.00" from="230765089#1" to="-863412061" departLane="best" departSpeed="max" departPos="random"/>
    <trip id="19" depart="19.00" from="261750866" to="-1082513142#1" departLane="best" departSpeed="max" departPos="random"/>
    <trip id="20" depart="20.00" from="-566409382#0" to="-384971140#0" departLane="best" departSpeed="max" departPos="random"/>
    <trip id="21" depart="21.00" from="566409382#0" to="3100654#0" departLane="best" departSpeed="max" departPos="random"/>
    <trip id="22" depart="22.00" from="98331811" to="741042671#1" departLane="best" departSpeed="max" departPos="random"/>
    <trip id="23" depart="23.00" from="261750867" to="-384971140#4" departLane="best" departSpeed="max" departPos="random"/>
    <trip id="24" depart="24.00" from="149399209#0" to="-3454180#1" departLane="best" departSpeed="max" departPos="random"/>
    <trip id="25" depart="25.00" from="98331811" to="149399187#0" departLane="best" departSpeed="max" departPos="random"/>
    <trip id="26" depart="26.00" from="384971140#3" to="-1234351189#1" departLane="best" departSpeed="max" departPos="random"/>
    <trip id="27" depart="27.00" from="-261423862#0" to="-3527424#6" departLane="best" departSpeed="max" departPos="random"/>
    <trip id="28" depart="28.00" from="-384971140#0" to="-90051672#0" departLane="best" departSpeed="max" departPos="random"/>
    <trip id="29" depart="29.00" from="-4212342" to="1307793411#0" departLane="best" departSpeed="max" departPos="random"/>
    <trip id="30" depart="30.00" from="1119459060#0" to="-261420059#1" departLane="best" departSpeed="max" departPos="random"/>
    <trip id="31" depart="31.00" from="-149723892#1" to="-90051672#2" departLane="best" departSpeed="max" departPos="random"/>
    <trip id="32" depart="32.00" from="-154343753" to="3454180#2" departLane="best" departSpeed="max" departPos="random"/>
    <trip id="33" depart="33.00" from="1025860967#1" to="999241257#1" departLane="best" departSpeed="max" departPos="random"/>
    <trip id="34" depart="34.00" from="-4059030#0" to="151549312" departLane="best" departSpeed="max" departPos="random"/>
    <trip id="35" depart="35.00" from="384971140#1" to="-863412061" departLane="best" departSpeed="max" departPos="random"/>
    <trip id="36" depart="36.00" from="1082513143#4" to="3577471#0" departLane="best" departSpeed="max" departPos="random"/>
    <trip id="37" depart="37.00" from="3454368#1" to="1025860967#1" departLane="best" departSpeed="max" departPos="random"/>
    <trip id="38" depart="38.00" from="523772481" to="-1307793411#1" departLane="best" departSpeed="max" departPos="random"/>
    <trip id="39" depart="39.00" from="-261741010#1" to="314456049" departLane="best" departSpeed="max" departPos="random"/>
    <trip id="40" depart="40.00" from="601799190#1" to="4059033#2" departLane="best" departSpeed="max" departPos="random"/>
    <trip id="41" depart="41.00" from="-999241257#5" to="-261741010#2" departLane="best" departSpeed="max" departPos="random"/>
    <trip id="42" depart="42.00" from="261750866" to="4211384#1" departLane="best" departSpeed="max" departPos="random"/>
    <trip id="43" depart="43.00" from="-999241257#3" to="-149723891" departLane="best" departSpeed="max" departPos="random"/>
    <trip id="44" depart="44.00" from="-261423862#2" to="326502793#1" departLane="best" departSpeed="max" departPos="random"/>
    <trip id="45" depart="45.00" from="384971139" to="90051672#2" departLane="best" departSpeed="max" departPos="random"/>
    <trip id="46" depart="46.00" from="3428809#5" to="-566409374#0" departLane="best" departSpeed="max" departPos="random"/>
    <trip id="47" depart="47.00" from="4211633" to="-1157505351" departLane="best" departSpeed="max" departPos="random"/>
    <trip id="48" depart="48.00" from="159908039#2" to="-261750866" departLane="best" departSpeed="max" departPos="random"/>
    <trip id="49" depart="49.00" from="159700888#1" to="160803845#0" departLane="best" departSpeed="max" departPos="random"/>
    <trip id="50" depart="50.00" from="159902718#2" to="-3577472#2" departLane="best" departSpeed="max" departPos="random"/>
    <trip id="51" depart="51.00" from="-3428809#6" to="179609886#1" departLane="best" departSpeed="max" departPos="random"/>
    <trip id="52" depart="52.00" from="68992847#0" to="4211384#1" departLane="best" departSpeed="max" departPos="random"/>
    <trip id="53" depart="53.00" from="149399209#0" to="36894772#3" departLane="best" departSpeed="max" departPos="random"/>
    <trip id="54" depart="54.00" from="4059064#2" to="-428021295" departLane="best" departSpeed="max" departPos="random"/>
    <trip id="55" depart="55.00" from="4295992#0" to="261418601" departLane="best" departSpeed="max" departPos="random"/>
    <trip id="56" depart="56.00" from="149399210#1" to="1135899061" departLane="best" departSpeed="max" departPos="random"/>
    <trip id="57" depart="57.00" from="-362075987" to="159902718#2" departLane="best" departSpeed="max" departPos="random"/>
    <trip id="58" depart="58.00" from="-261418601" to="266635496#2" departLane="best" departSpeed="max" departPos="random"/>
    <trip id="59" depart="59.00" from="566409374#0" to="4059065#0" departLane="best" departSpeed="max" departPos="random"/>
    <trip id="60" depart="60.00" from="261741010#2" to="159234717#2" departLane="best" departSpeed="max" departPos="random"/>
    <trip id="61" depart="61.00" from="3527424#2" to="-261423865#0" departLane="best" departSpeed="max" departPos="random"/>
    <trip id="62" depart="62.00" from="-1301927136#0" to="4295990#1" departLane="best" departSpeed="max" departPos="random"/>
    <trip id="63" depart="63.00" from="-708234065" to="326502793#1" departLane="best" departSpeed="max" departPos="random"/>
    <trip id="64" depart="64.00" from="1119459060#0" to="-999241257#1" departLane="best" departSpeed="max" departPos="random"/>
    <trip id="65" depart="65.00" from="384971140#4" to="422738800#1" departLane="best" departSpeed="max" departPos="random"/>
    <trip id="66" depart="66.00" from="-326502793#2" to="90051672#0" departLane="best" departSpeed="max" departPos="random"/>
    <trip id="67" depart="67.00" from="-149723892#0" to="1157505367" departLane="best" departSpeed="max" departPos="random"/>
    <trip id="68" depart="68.00" from="159700888#1" to="422738802#0" departLane="best" departSpeed="max" departPos="random"/>
    <trip id="69" depart="69.00" from="-261418601" to="-428036774#1" departLane="best" departSpeed="max" departPos="random"/>
    <trip id="70" depart="70.00" from="755621065" to="-1276314566" departLane="best" departSpeed="max" departPos="random"/>
    <trip id="71" depart="71.00" from="-999241257#5" to="-261420059#0" departLane="best" departSpeed="max" departPos="random"/>
    <trip id="72" depart="72.00" from="230765089#1" to="741042671#1" departLane="best" departSpeed="max" departPos="random"/>
    <trip id="73" depart="73.00" from="-4059037" to="149399187#0" departLane="best" departSpeed="max" departPos="random"/>
    <trip id="74" depart="74.00" from="184170266#1" to="-415869887" departLane="best" departSpeed="max" departPos="random"/>
    <trip id="75" depart="75.00" from="3454808#1" to="159902718#2" departLane="best" departSpeed="max" departPos="random"/>
    <trip id="76" depart="76.00" from="863412048" to="-3527424#0" departLane="best" departSpeed="max" departPos="random"/>
    <trip id="77" depart="77.00" from="376239874" to="151549312" departLane="best" departSpeed="max" departPos="random"/>
    <trip id="78" depart="78.00" from="-1234351189#0" to="999241257#5" departLane="best" departSpeed="max" departPos="random"/>
    <trip id="79" depart="79.00" from="-261423864#1" to="4570906#1" departLane="best" departSpeed="max" departPos="random"/>
    <trip id="80" depart="80.00" from="560562743" to="-384971139" departLane="best" departSpeed="max" departPos="random"/>
    <trip id="81" depart="81.00" from="4059064#0" to="-4818835#3" departLane="best" departSpeed="max" departPos="random"/>
    <trip id="82" depart="82.00" from="261420050#1" to="90051672#2" departLane="best" departSpeed="max" departPos="random"/>
    <trip id="83" depart="83.00" from="3454808#0" to="-149723892#0" departLane="best" departSpeed="max" departPos="random"/>
    <trip id="84" depart="84.00" from="1082513143#2" to="1276314567" departLane="best" departSpeed="max" departPos="random"/>
    <trip id="85" depart="85.00" from="261741010#0" to="159700888#1" departLane="best" departSpeed="max" departPos="random"/>
    <trip id="86" depart="86.00" from="689346038" to="428021297#0" departLane="best" departSpeed="max" departPos="random"/>
    <trip id="87" depart="87.00" from="-4295990#1" to="450125391" departLane="best" departSpeed="max" departPos="random"/>
    <trip id="88" depart="88.00" from="137962150#0" to="-4818835#0" departLane="best" departSpeed="max" departPos="random"/>
    <trip id="89" depart="89.00" from="160803840" to="-4818835#0" departLane="best" departSpeed="max" departPos="random"/>
    <trip id="90" depart="90.00" from="-3428809#6" to="668571648#1" departLane="best" departSpeed="max" departPos="random"/>
    <trip id="91" depart="91.00" from="-154343753" to="668571648#1" departLane="best" departSpeed="max" departPos="random"/>
    <trip id="92" depart="92.00" from="1082513142#0" to="4059065#1" departLane="best" departSpeed="max" departPos="random"/>
    <trip id="93" depart="93.00" from="3924806" to="1335949463" departLane="best" departSpeed="max" departPos="random"/>
    <trip id="94" depart="94.00" from="566409382#1" to="-159234717#2" departLane="best" departSpeed="max" departPos="random"/>
    <trip id="95" depart="95.00" from="689346038" to="-1082513142#0" departLane="best" departSpeed="max" departPos="random"/>
    <trip id="96" depart="96.00" from="326502793#3" to="160803847" departLane="best" departSpeed="max" departPos="random"/>
    <trip id="97" depart="97.00" from="-1234351189#0" to="668571648#2" departLane="best" departSpeed="max" departPos="random"/>
    <trip id="98" depart="98.00" from="-3428809#1" to="-261423862#0" departLane="best" departSpeed="max" departPos="random"/>
    <trip id="99" depart="99.00" from="3428809#6" to="422738801#0" departLane="best" departSpeed="max" departPos="random"/>
    <trip id="100" depart="100.00" from="-708234065" to="-310639257#1" departLane="best" departSpeed="max" departPos="random"/>
    <trip id="101" depart="101.00" from="-362075987" to="-384971139" departLane="best" departSpeed="max" departPos="random"/>
    <trip id="102" depart="102.00" from="3428809#1" to="1307793411#0" departLane="best" departSpeed="max" departPos="random"/>
    <trip id="103" depart="103.00" from="171964224#1" to="1119459060#1" departLane="best" departSpeed="max" departPos="random"/>
    <trip id="104" depart="104.00" from="86548565#1" to="159700888#1" departLane="best" departSpeed="max" departPos="random"/>
    <trip id="105" depart="105.00" from="-1234351189#0" to="-261750866" departLane="best" departSpeed="max" departPos="random"/>
    <trip id="106" depart="106.00" from="36966883" to="534092873" departLane="best" departSpeed="max" departPos="random"/>
    <trip id="107" depart="107.00" from="-261418601" to="149723892#1" departLane="best" departSpeed="max" departPos="random"/>
    <trip id="108" depart="108.00" from="4935749" to="171947874#1" departLane="best" departSpeed="max" departPos="random"/>
    <trip id="109" depart="109.00" from="708234064" to="-261420056" departLane="best" departSpeed="max" departPos="random"/>
    <trip id="110" depart="110.00" from="261423862#2" to="-68992847#0" departLane="best" departSpeed="max" departPos="random"/>
    <trip id="111" depart="111.00" from="-159902717" to="326502793#1" departLane="best" departSpeed="max" departPos="random"/>
    <trip id="112" depart="112.00" from="863412061" to="-3454180#2" departLane="best" departSpeed="max" departPos="random"/>
    <trip id="113" depart="113.00" from="-261418601" to="151549312" departLane="best" departSpeed="max" departPos="random"/>
    <trip id="114" depart="114.00" from="4818835#0" to="-1025860967#0" departLane="best" departSpeed="max" departPos="random"/>
    <trip id="115" depart="115.00" from="-1157505358#0" to="-3100654#1" departLane="best" departSpeed="max" departPos="random"/>
    <trip id="116" depart="116.00" from="1301927136#0" to="566409385#0" departLane="best" departSpeed="max" departPos="random"/>
    <trip id="117" depart="117.00" from="3428809#1" to="-149399201" departLane="best" departSpeed="max" departPos="random"/>
    <trip id="118" depart="118.00" from="-261741010#6" to="149723892#2" departLane="best" departSpeed="max" departPos="random"/>
    <trip id="119" depart="119.00" from="-68992847#1" to="68992847#1" departLane="best" departSpeed="max" departPos="random"/>
    <trip id="120" depart="120.00" from="428021297#1" to="4212342" departLane="best" departSpeed="max" departPos="random"/>
    <trip id="121" depart="121.00" from="-36894772#2" to="1304155014" departLane="best" departSpeed="max" departPos="random"/>
    <trip id="122" depart="122.00" from="-1082513141" to="-708234065" departLane="best" departSpeed="max" departPos="random"/>
    <trip id="123" depart="123.00" from="1025127003" to="4059064#1" departLane="best" departSpeed="max" departPos="random"/>
    <trip id="124" depart="124.00" from="428021295" to="-137962150#2" departLane="best" departSpeed="max" departPos="random"/>
    <trip id="125" depart="125.00" from="-149723892#2" to="56057361#0" departLane="best" departSpeed="max" departPos="random"/>
    <trip id="126" depart="126.00" from="-428036770#2" to="-261741010#2" departLane="best" departSpeed="max" departPos="random"/>
    <trip id="127" depart="127.00" from="4211633" to="4059064#0" departLane="best" departSpeed="max" departPos="random"/>
    <trip id="128" depart="128.00" from="261564748#2" to="4059030#1" departLane="best" departSpeed="max" departPos="random"/>
    <trip id="129" depart="129.00" from="4818835#2" to="428036775#2" departLane="best" departSpeed="max" departPos="random"/>
    <trip id="130" depart="130.00" from="-4059030#1" to="1234351189#1" departLane="best" departSpeed="max" departPos="random"/>
    <trip id="131" depart="131.00" from="86548565#1" to="1025127003" departLane="best" departSpeed="max" departPos="random"/>
    <trip id="132" depart="132.00" from="261750866" to="428036770#2" departLane="best" departSpeed="max" departPos="random"/>
    <trip id="133" depart="133.00" from="-159234717#2" to="3577471#1" departLane="best" departSpeed="max" departPos="random"/>
    <trip id="134" depart="134.00" from="261741010#2" to="149399187#0" departLane="best" departSpeed="max" departPos="random"/>
    <trip id="135" depart="135.00" from="4059065#0" to="-4818835#0" departLane="best" departSpeed="max" departPos="random"/>
    <trip id="136" depart="136.00" from="560562742" to="90171086" departLane="best" departSpeed="max" departPos="random"/>
    <trip id="137" depart="137.00" from="36894772#3" to="3924806" departLane="best" departSpeed="max" departPos="random"/>
    <trip id="138" depart="138.00" from="566409374#0" to="326502793#3" departLane="best" departSpeed="max" departPos="random"/>
    <trip id="139" depart="139.00" from="4059065#1" to="1003269855#0" departLane="best" departSpeed="max" departPos="random"/>
    <trip id="140" depart="140.00" from="261564748#2" to="-4295992#2" departLane="best" departSpeed="max" departPos="random"/>
    <trip id="141" depart="141.00" from="560562743" to="-159234717#2" departLane="best" departSpeed="max" departPos="random"/>
    <trip id="142" depart="142.00" from="-137962150#2" to="-422738800#1" departLane="best" departSpeed="max" departPos="random"/>
    <trip id="143" depart="143.00" from="-261420059#1" to="1157505362" departLane="best" departSpeed="max" departPos="random"/>
    <trip id="144" depart="144.00" from="171942531" to="-261423864#0" departLane="best" departSpeed="max" departPos="random"/>
    <trip id="145" depart="145.00" from="-519956415#1" to="4211383#1" departLane="best" departSpeed="max" departPos="random"/>
    <trip id="146" depart="146.00" from="342317279" to="149399187#0" departLane="best" departSpeed="max" departPos="random"/>
    <trip id="147" depart="147.00" from="4059033#3" to="428021296#0" departLane="best" departSpeed="max" departPos="random"/>
    <trip id="148" depart="148.00" from="428021297#0" to="477157312#1" departLane="best" departSpeed="max" departPos="random"/>
    <trip id="149" depart="149.00" from="-68992847#1" to="326502793#4" departLane="best" departSpeed="max" departPos="random"/>
    <trip id="150" depart="150.00" from="428021297#1" to="-261750863#0" departLane="best" departSpeed="max" departPos="random"/>
    <trip id="151" depart="151.00" from="601799190#1" to="4211384#1" departLane="best" departSpeed="max" departPos="random"/>
    <trip id="152" depart="152.00" from="-261420059#0" to="428036773" departLane="best" departSpeed="max" departPos="random"/>
    <trip id="153" depart="153.00" from="428036774#0" to="-149723892#1" departLane="best" departSpeed="max" departPos="random"/>
    <trip id="154" depart="154.00" from="-999241257#5" to="184170266#1" departLane="best" departSpeed="max" departPos="random"/>
    <trip id="155" depart="155.00" from="3100643" to="160803841" departLane="best" departSpeed="max" departPos="random"/>
    <trip id="156" depart="156.00" from="-3428809#2" to="-566409374#0" departLane="best" departSpeed="max" departPos="random"/>
    <trip id="157" depart="157.00" from="261423864#0" to="4059064#0" departLane="best" departSpeed="max" departPos="random"/>
    <trip id="158" depart="158.00" from="-56057361#1" to="-1082513143#4" departLane="best" departSpeed="max" departPos="random"/>
    <trip id="159" depart="159.00" from="-261741010#1" to="-4818835#0" departLane="best" departSpeed="max" departPos="random"/>
    <trip id="160" depart="160.00" from="863412061" to="1301927136#0" departLane="best" departSpeed="max" departPos="random"/>
    <trip id="161" depart="161.00" from="159234717#1" to="1234351298" departLane="best" departSpeed="max" departPos="random"/>
    <trip id="162" depart="162.00" from="160803847" to="49931897" departLane="best" departSpeed="max" departPos="random"/>
    <trip id="163" depart="163.00" from="-149723892#1" to="261418601" departLane="best" departSpeed="max" departPos="random"/>
    <trip id="164" depart="164.00" from="-3428809#3" to="184170266#1" departLane="best" departSpeed="max" departPos="random"/>
    <trip id="165" depart="165.00" from="428021296#0" to="1307793411#0" departLane="best" departSpeed="max" departPos="random"/>
    <trip id="166" depart="166.00" from="755621065" to="4295992#0" departLane="best" departSpeed="max" departPos="random"/>
    <trip id="167" depart="167.00" from="-1157505357" to="342317279" departLane="best" departSpeed="max" departPos="random"/>
    <trip id="168" depart="168.00" from="-3100643" to="310639256" departLane="best" departSpeed="max" departPos="random"/>
    <trip id="169" depart="169.00" from="534092873" to="261741010#0" departLane="best" departSpeed="max" departPos="random"/>
    <trip id="170" depart="170.00" from="-519956418#1" to="-3527424#0" departLane="best" departSpeed="max" departPos="random"/>
    <trip id="171" depart="171.00" from="-1234351189#1" to="-310639257#1" departLane="best" departSpeed="max" departPos="random"/>
    <trip id="172" depart="172.00" from="422738801#1" to="-261750866" departLane="best" departSpeed="max" departPos="random"/>
    <trip id="173" depart="173.00" from="3527440#0" to="261418601" departLane="best" departSpeed="max" departPos="random"/>
    <trip id="174" depart="174.00" from="-4059030#1" to="1157505362" departLane="best" departSpeed="max" departPos="random"/>
    <trip id="175" depart="175.00" from="3428809#0" to="162058716#1" departLane="best" departSpeed="max" departPos="random"/>
    <trip id="176" depart="176.00" from="90171086" to="56057361#0" departLane="best" departSpeed="max" departPos="random"/>
    <trip id="177" depart="177.00" from="560562742" to="261423864#0" departLane="best" departSpeed="max" departPos="random"/>
    <trip id="178" depart="178.00" from="1248871137" to="314456049" departLane="best" departSpeed="max" departPos="random"/>
    <trip id="179" depart="179.00" from="261750866" to="422738801#3" departLane="best" departSpeed="max" departPos="random"/>
    <trip id="180" depart="180.00" from="149399201" to="1025860967#1" departLane="best" departSpeed="max" departPos="random"/>
    <trip id="181" depart="181.00" from="422738802#0" to="150078330" departLane="best" departSpeed="max" departPos="random"/>
    <trip id="182" depart="182.00" from="310639257#1" to="-4818835#0" departLane="best" departSpeed="max" departPos="random"/>
    <trip id="183" depart="183.00" from="261420059#1" to="4059064#1" departLane="best" departSpeed="max" departPos="random"/>
    <trip id="184" depart="184.00" from="-56057361#1" to="-3428809#3" departLane="best" departSpeed="max" departPos="random"/>
    <trip id="185" depart="185.00" from="149723892#2" to="1025860967#1" departLane="best" departSpeed="max" departPos="random"/>
    <trip id="186" depart="186.00" from="1119459060#1" to="-3454180#1" departLane="best" departSpeed="max" departPos="random"/>
    <trip id="187" depart="187.00" from="-154343753" to="260924072" departLane="best" departSpeed="max" departPos="random"/>
    <trip id="188" depart="188.00" from="-362075987" to="261743231" departLane="best" departSpeed="max" departPos="random"/>
    <trip id="189" depart="189.00" from="708234065" to="266635494" departLane="best" departSpeed="max" departPos="random"/>
    <trip id="190" depart="190.00" from="1082513143#3" to="503190615#0" departLane="best" departSpeed="max" departPos="random"/>
    <trip id="191" depart="191.00" from="-36894772#3" to="36894772#2" departLane="best" departSpeed="max" departPos="random"/>
    <trip id="192" depart="192.00" from="3527440#0" to="-3100654#0" departLane="best" departSpeed="max" departPos="random"/>
    <trip id="193" depart="193.00" from="694375402" to="-261750866" departLane="best" departSpeed="max" departPos="random"/>
    <trip id="194" depart="194.00" from="422738801#3" to="-3428809#2" departLane="best" departSpeed="max" departPos="random"/>
    <trip id="195" depart="195.00" from="-326502793#1" to="171964224#1" departLane="best" departSpeed="max" departPos="random"/>
    <trip id="196" depart="196.00" from="-342317279" to="90171086" departLane="best" departSpeed="max" departPos="random"/>
    <trip id="197" depart="197.00" from="159700888#1" to="-1025860967#0" departLane="best" departSpeed="max" departPos="random"/>
    <trip id="198" depart="198.00" from="3454180#2" to="3100654#0" departLane="best" departSpeed="max" departPos="random"/>
    <trip id="199" depart="199.00" from="-362075987" to="1301927136#0" departLane="best" departSpeed="max" departPos="random"/>
    <trip id="200" depart="200.00" from="4818815" to="151549312" departLane="best" departSpeed="max" departPos="random"/>
    <trip id="201" depart="201.00" from="86548565#0" to="149399187#0" departLane="best" departSpeed="max" departPos="random"/>
    <trip id="202" depart="202.00" from="-1082513142#2" to="-1157505362" departLane="best" departSpeed="max" departPos="random"/>
    <trip id="203" depart="203.00" from="160803845#0" to="326502793#4" departLane="best" departSpeed="max" departPos="random"/>
    <trip id="204" depart="204.00" from="179310598#0" to="36894772#2" departLane="best" departSpeed="max" departPos="random"/>
    <trip id="205" depart="205.00" from="428036770#0" to="3454368#1" departLane="best" departSpeed="max" departPos="random"/>
    <trip id="206" depart="206.00" from="3428809#3" to="-1157505358#0" departLane="best" departSpeed="max" departPos="random"/>
    <trip id="207" depart="207.00" from="-261420056" to="149399201" departLane="best" departSpeed="max" departPos="random"/>
    <trip id="208" depart="208.00" from="428021295" to="428021296#0" departLane="best" departSpeed="max" departPos="random"/>
    <trip id="209" depart="209.00" from="1135899069" to="428021296#0" departLane="best" departSpeed="max" departPos="random"/>
    <trip id="210" depart="210.00" from="-261418601" to="68992847#1" departLane="best" departSpeed="max" departPos="random"/>
    <trip id="211" depart="211.00" from="-154343753" to="-36894772#2" departLane="best" departSpeed="max" departPos="random"/>
    <trip id="212" depart="212.00" from="-1248871134" to="179310598#0" departLane="best" departSpeed="max" departPos="random"/>
    <trip id="213" depart="213.00" from="86548565#0" to="-1082513141" departLane="best" departSpeed="max" departPos="random"/>
    <trip id="214" depart="214.00" from="149399210#1" to="1234351189#1" departLane="best" departSpeed="max" departPos="random"/>
    <trip id="215" depart="215.00" from="3527440#0" to="-149723892#1" departLane="best" departSpeed="max" departPos="random"/>
    <trip id="216" depart="216.00" from="-519956415#1" to="1157505367" departLane="best" departSpeed="max" departPos="random"/>
    <trip id="217" depart="217.00" from="149723891" to="1135899061" departLane="best" departSpeed="max" departPos="random"/>
    <trip id="218" depart="218.00" from="-68992847#1" to="601799190#1" departLane="best" departSpeed="max" departPos="random"/>
    <trip id="219" depart="219.00" from="352645639#3" to="1025127003" departLane="best" departSpeed="max" departPos="random"/>
    <trip id="220" depart="220.00" from="-3428809#3" to="450125391" departLane="best" departSpeed="max" departPos="random"/>
    <trip id="221" depart="221.00" from="1157505356" to="149399190" departLane="best" departSpeed="max" departPos="random"/>
    <trip id="222" depart="222.00" from="-1234351125#1" to="-1276314566" departLane="best" departSpeed="max" departPos="random"/>
    <trip id="223" depart="223.00" from="708234064" to="689346035#1" departLane="best" departSpeed="max" departPos="random"/>
    <trip id="224" depart="224.00" from="-999241257#5" to="422738802#4" departLane="best" departSpeed="max" departPos="random"/>
    <trip id="225" depart="225.00" from="36966883" to="1025127003" departLane="best" departSpeed="max" departPos="random"/>
    <trip id="226" depart="226.00" from="-149723892#1" to="261423864#1" departLane="best" departSpeed="max" departPos="random"/>
    <trip id="227" depart="227.00" from="-261418601" to="149399187#0" departLane="best" departSpeed="max" departPos="random"/>
    <trip id="228" depart="228.00" from="159700888#1" to="-1157505358#0" departLane="best" departSpeed="max" departPos="random"/>
    <trip id="229" depart="229.00" from="3527424#6" to="-310639257#0" departLane="best" departSpeed="max" departPos="random"/>
    <trip id="230" depart="230.00" from="261564748#2" to="-999241257#2" departLane="best" departSpeed="max" departPos="random"/>
    <trip id="231" depart="231.00" from="261741011#0" to="428021297#0" departLane="best" departSpeed="max" departPos="random"/>
    <trip id="232" depart="232.00" from="149399184" to="-384971139" departLane="best" departSpeed="max" departPos="random"/>